@<TRIPOS>MOLECULE
Phloretin
34 35 1 0 0
SMALL
NO_CHARGES


@<TRIPOS>ATOM
      1 C5         40.0360   14.8340   -1.4700 C.ar      1 Phloretin    0.0000
      2 C8         41.2310   14.2810   -1.0090 C.ar      1 Phloretin    0.0000
      3 C9         38.8400   14.1330   -1.3200 C.ar      1 Phloretin    0.0000
      4 C10        41.2290   13.0270   -0.3980 C.ar      1 Phloretin    0.0000
      5 C11        38.8370   12.8800   -0.7090 C.ar      1 Phloretin    0.0000
      6 C14        40.0320   12.3260   -0.2480 C.ar      1 Phloretin    0.0000
      7 C4         40.0390   16.1450   -2.1080 C.2       1 Phloretin    0.0000
      8 O1         40.3660   16.2690   -3.3050 O.2       1 Phloretin    0.0000
      9 C2         39.6390   17.3910   -1.2990 C.3       1 Phloretin    0.0000
     10 C1         39.6470   18.6770   -2.1270 C.3       1 Phloretin    0.0000
     11 C3         39.5890   19.9030   -1.2520 C.ar      1 Phloretin    0.0000
     12 C6         38.7950   19.8920   -0.1150 C.ar      1 Phloretin    0.0000
     13 C12        38.7420   21.0270    0.6950 C.ar      1 Phloretin    0.0000
     14 C15        39.4820   22.1600    0.3570 C.ar      1 Phloretin    0.0000
     15 C13        40.2770   22.1580   -0.7900 C.ar      1 Phloretin    0.0000
     16 C7         40.3300   21.0240   -1.5990 C.ar      1 Phloretin    0.0000
     17 O5         39.4310   23.2660    1.1480 O.3       1 Phloretin    0.0000
     18 H14        39.3340   22.9880    2.0740 H         1 Phloretin    0.0000
     19 O2         42.4110   14.9490   -1.1450 O.3       1 Phloretin    0.0000
     20 H11        42.2970   15.8920   -0.9460 H         1 Phloretin    0.0000
     21 O3         37.6610   14.6560   -1.7630 O.3       1 Phloretin    0.0000
     22 H12        37.3130   15.2690   -1.0930 H         1 Phloretin    0.0000
     23 O4         40.0300   11.1020    0.3480 O.3       1 Phloretin    0.0000
     24 H13        40.6020   11.1330    1.1340 H         1 Phloretin    0.0000
     25 HC         42.1540   12.5987   -0.0411 H         1 Phloretin    0.0000
     26 HC1        37.9101   12.3381   -0.5924 H         1 Phloretin    0.0000
     27 HC2        38.6342   17.2396   -0.9046 H         1 Phloretin    0.0000
     28 HC3        40.3308   17.5056   -0.4645 H         1 Phloretin    0.0000
     29 HC4        40.5608   18.7094   -2.7204 H         1 Phloretin    0.0000
     30 HC5        38.7868   18.6756   -2.7965 H         1 Phloretin    0.0000
     31 HC6        38.2227   19.0127    0.1413 H         1 Phloretin    0.0000
     32 HC7        38.1281   21.0282    1.5835 H         1 Phloretin    0.0000
     33 HC8        40.8511   23.0348   -1.0508 H         1 Phloretin    0.0000
     34 HC9        40.9426   21.0178   -2.4884 H         1 Phloretin    0.0000
@<TRIPOS>BOND
     1    1    2 ar
     2    1    3 ar
     3    1    7 1
     4    2    4 ar
     5    2   19 1
     6    3    5 ar
     7    3   21 1
     8    4    6 ar
     9    5    6 ar
    10    6   23 1
    11    7    8 2
    12    7    9 1
    13    9   10 1
    14   10   11 1
    15   11   12 ar
    16   11   16 ar
    17   12   13 ar
    18   13   14 ar
    19   14   15 ar
    20   14   17 1
    21   15   16 ar
    22   17   18 1
    23   19   20 1
    24   21   22 1
    25   23   24 1
    26   25    4 1
    27   26    5 1
    28   27    9 1
    29   28    9 1
    30   29   10 1
    31   30   10 1
    32   31   12 1
    33   32   13 1
    34   33   15 1
    35   34   16 1
@<TRIPOS>SUBSTRUCTURE
     1 Phloretin     1 RESIDUE           4 A     Phloretin     0 ROOT
