MODEL 1
REMARK VINA RESULT:      -7.0      0.000      0.000
REMARK  6 active torsions:
REMARK  status: ('A' for Active; 'I' for Inactive)
REMARK    1  A    between atoms: O2_2  and  C5_12 
REMARK    2  A    between atoms: O3_3  and  C7_14 
REMARK    3  A    between atoms: O5_5  and  C9_16 
REMARK    4  A    between atoms: O6_6  and  C13_20 
REMARK    5  A    between atoms: O7_7  and  C15_22 
REMARK    6  A    between atoms: C3_10  and  C4_11 
ROOT
ATOM      1  O1  UNK A          39.615  14.625   0.074  0.00  0.00    -0.306 OA
ATOM      2  O4  UNK A          42.270  13.254  -2.697  0.00  0.00    -0.284 OA
ATOM      3  C1  UNK A          40.911  12.782  -0.829  0.00  0.00     0.084 A 
ATOM      4  C2  UNK A          40.008  13.312   0.091  0.00  0.00     0.096 A 
ATOM      5  C3  UNK A          40.128  15.457  -0.909  0.00  0.00     0.123 A 
ATOM      6  C5  UNK A          41.012  15.073  -1.849  0.00  0.00     0.152 A 
ATOM      7  C6  UNK A          41.469  13.662  -1.866  0.00  0.00     0.223 A 
ATOM      8  C7  UNK A          41.276  11.435  -0.762  0.00  0.00     0.085 A 
ATOM      9  C8  UNK A          39.467  12.497   1.086  0.00  0.00     0.075 A 
ATOM     10  C9  UNK A          39.829  11.152   1.156  0.00  0.00     0.071 A 
ATOM     11  C11 UNK A          40.732  10.623   0.233  0.00  0.00     0.074 A 
ENDROOT
BRANCH   5  12
ATOM     12  C4  UNK A          39.625  16.838  -0.813  0.00  0.00     0.004 A 
ATOM     13  C10 UNK A          38.748  17.194   0.212  0.00  0.00     0.053 A 
ATOM     14  C13 UNK A          38.273  18.501   0.303  0.00  0.00     0.099 A 
ATOM     15  C15 UNK A          38.674  19.455  -0.634  0.00  0.00     0.098 A 
ATOM     16  C14 UNK A          39.550  19.101  -1.659  0.00  0.00     0.040 A 
ATOM     17  C12 UNK A          40.026  17.793  -1.749  0.00  0.00     0.017 A 
BRANCH  14  18
ATOM     18  O6  UNK A          37.417  18.836   1.307  0.00  0.00    -0.358 OA
ATOM     19  H9  UNK A          36.985  18.037   1.651  0.00  0.00     0.217 HD
ENDBRANCH  14  18
BRANCH  15  20
ATOM     20  O7  UNK A          38.217  20.736  -0.555  0.00  0.00    -0.358 OA
ATOM     21  H10 UNK A          37.321  20.743  -0.185  0.00  0.00     0.217 HD
ENDBRANCH  15  20
ENDBRANCH   5  12
BRANCH   6  22
ATOM     22  O2  UNK A          41.528  15.933  -2.793  0.00  0.00    -0.355 OA
ATOM     23  H6  UNK A          41.094  16.799  -2.723  0.00  0.00     0.218 HD
ENDBRANCH   6  22
BRANCH   8  24
ATOM     24  O3  UNK A          42.154  10.868  -1.636  0.00  0.00    -0.360 OA
ATOM     25  H7  UNK A          42.985  11.366  -1.656  0.00  0.00     0.217 HD
ENDBRANCH   8  24
BRANCH  10  26
ATOM     26  O5  UNK A          39.302  10.356   2.125  0.00  0.00    -0.361 OA
ATOM     27  H8  UNK A          39.845   9.553   2.205  0.00  0.00     0.217 HD
ENDBRANCH  10  26
TORSDOF 6
ENDMDL
MODEL 2
REMARK VINA RESULT:      -6.9      1.346      6.652
REMARK  6 active torsions:
REMARK  status: ('A' for Active; 'I' for Inactive)
REMARK    1  A    between atoms: O2_2  and  C5_12 
REMARK    2  A    between atoms: O3_3  and  C7_14 
REMARK    3  A    between atoms: O5_5  and  C9_16 
REMARK    4  A    between atoms: O6_6  and  C13_20 
REMARK    5  A    between atoms: O7_7  and  C15_22 
REMARK    6  A    between atoms: C3_10  and  C4_11 
ROOT
ATOM      1  O1  UNK A          39.400  16.343  -0.225  0.00  0.00    -0.306 OA
ATOM      2  O4  UNK A          40.598  18.770  -3.272  0.00  0.00    -0.284 OA
ATOM      3  C1  UNK A          39.424  18.548  -1.239  0.00  0.00     0.084 A 
ATOM      4  C2  UNK A          39.046  17.666  -0.228  0.00  0.00     0.096 A 
ATOM      5  C3  UNK A          40.180  15.864  -1.267  0.00  0.00     0.123 A 
ATOM      6  C5  UNK A          40.604  16.607  -2.306  0.00  0.00     0.152 A 
ATOM      7  C6  UNK A          40.240  18.044  -2.353  0.00  0.00     0.223 A 
ATOM      8  C7  UNK A          39.031  19.888  -1.189  0.00  0.00     0.085 A 
ATOM      9  C8  UNK A          38.269  18.120   0.839  0.00  0.00     0.075 A 
ATOM     10  C9  UNK A          37.875  19.457   0.892  0.00  0.00     0.071 A 
ATOM     11  C11 UNK A          38.256  20.339  -0.121  0.00  0.00     0.074 A 
ENDROOT
BRANCH   5  12
ATOM     12  C4  UNK A          40.490  14.429  -1.142  0.00  0.00     0.004 A 
ATOM     13  C10 UNK A          39.617  13.583  -0.456  0.00  0.00     0.053 A 
ATOM     14  C13 UNK A          39.909  12.225  -0.340  0.00  0.00     0.099 A 
ATOM     15  C15 UNK A          41.076  11.712  -0.907  0.00  0.00     0.098 A 
ATOM     16  C14 UNK A          41.949  12.557  -1.591  0.00  0.00     0.040 A 
ATOM     17  C12 UNK A          41.656  13.916  -1.709  0.00  0.00     0.017 A 
BRANCH  14  18
ATOM     18  O6  UNK A          39.051  11.409   0.333  0.00  0.00    -0.358 OA
ATOM     19  H9  UNK A          38.389  11.052  -0.281  0.00  0.00     0.217 HD
ENDBRANCH  14  18
BRANCH  15  20
ATOM     20  O7  UNK A          41.372  10.386  -0.800  0.00  0.00    -0.358 OA
ATOM     21  H10 UNK A          42.038  10.254  -0.107  0.00  0.00     0.217 HD
ENDBRANCH  15  20
ENDBRANCH   5  12
BRANCH   6  22
ATOM     22  O2  UNK A          41.352  16.093  -3.343  0.00  0.00    -0.355 OA
ATOM     23  H6  UNK A          40.763  15.735  -4.028  0.00  0.00     0.218 HD
ENDBRANCH   6  22
BRANCH   8  24
ATOM     24  O3  UNK A          39.374  20.790  -2.151  0.00  0.00    -0.360 OA
ATOM     25  H7  UNK A          40.093  21.361  -1.841  0.00  0.00     0.217 HD
ENDBRANCH   8  24
BRANCH  10  26
ATOM     26  O5  UNK A          37.119  19.902   1.932  0.00  0.00    -0.361 OA
ATOM     27  H8  UNK A          37.198  20.869   1.990  0.00  0.00     0.217 HD
ENDBRANCH  10  26
TORSDOF 6
ENDMDL
MODEL 3
REMARK VINA RESULT:      -6.5     10.070     11.593
REMARK  6 active torsions:
REMARK  status: ('A' for Active; 'I' for Inactive)
REMARK    1  A    between atoms: O2_2  and  C5_12 
REMARK    2  A    between atoms: O3_3  and  C7_14 
REMARK    3  A    between atoms: O5_5  and  C9_16 
REMARK    4  A    between atoms: O6_6  and  C13_20 
REMARK    5  A    between atoms: O7_7  and  C15_22 
REMARK    6  A    between atoms: C3_10  and  C4_11 
ROOT
ATOM      1  O1  UNK A          46.265  11.285  -7.459  0.00  0.00    -0.306 OA
ATOM      2  O4  UNK A          48.274  12.071 -10.917  0.00  0.00    -0.284 OA
ATOM      3  C1  UNK A          46.268  11.382  -9.884  0.00  0.00     0.084 A 
ATOM      4  C2  UNK A          45.638  11.129  -8.668  0.00  0.00     0.096 A 
ATOM      5  C3  UNK A          47.579  11.726  -7.447  0.00  0.00     0.123 A 
ATOM      6  C5  UNK A          48.303  11.997  -8.550  0.00  0.00     0.152 A 
ATOM      7  C6  UNK A          47.667  11.838  -9.880  0.00  0.00     0.223 A 
ATOM      8  C7  UNK A          45.579  11.205 -11.086  0.00  0.00     0.085 A 
ATOM      9  C8  UNK A          44.312  10.694  -8.646  0.00  0.00     0.075 A 
ATOM     10  C9  UNK A          43.620  10.516  -9.844  0.00  0.00     0.071 A 
ATOM     11  C11 UNK A          44.253  10.771 -11.062  0.00  0.00     0.074 A 
ENDROOT
BRANCH   5  12
ATOM     12  C4  UNK A          48.132  11.850  -6.088  0.00  0.00     0.004 A 
ATOM     13  C10 UNK A          48.145  13.091  -5.449  0.00  0.00     0.053 A 
ATOM     14  C13 UNK A          48.667  13.208  -4.162  0.00  0.00     0.099 A 
ATOM     15  C15 UNK A          49.179  12.084  -3.512  0.00  0.00     0.098 A 
ATOM     16  C14 UNK A          49.167  10.844  -4.150  0.00  0.00     0.040 A 
ATOM     17  C12 UNK A          48.644  10.726  -5.437  0.00  0.00     0.017 A 
BRANCH  14  18
ATOM     18  O6  UNK A          48.675  14.424  -3.549  0.00  0.00    -0.358 OA
ATOM     19  H9  UNK A          49.396  14.967  -3.907  0.00  0.00     0.217 HD
ENDBRANCH  14  18
BRANCH  15  20
ATOM     20  O7  UNK A          49.691  12.186  -2.253  0.00  0.00    -0.358 OA
ATOM     21  H10 UNK A          50.147  13.036  -2.153  0.00  0.00     0.217 HD
ENDBRANCH  15  20
ENDBRANCH   5  12
BRANCH   6  22
ATOM     22  O2  UNK A          49.619  12.402  -8.505  0.00  0.00    -0.355 OA
ATOM     23  H6  UNK A          50.064  12.172  -9.337  0.00  0.00     0.218 HD
ENDBRANCH   6  22
BRANCH   8  24
ATOM     24  O3  UNK A          46.148  11.438 -12.302  0.00  0.00    -0.360 OA
ATOM     25  H7  UNK A          46.008  12.358 -12.573  0.00  0.00     0.217 HD
ENDBRANCH   8  24
BRANCH  10  26
ATOM     26  O5  UNK A          42.328  10.092  -9.825  0.00  0.00    -0.361 OA
ATOM     27  H8  UNK A          41.978  10.105 -10.733  0.00  0.00     0.217 HD
ENDBRANCH  10  26
TORSDOF 6
ENDMDL
MODEL 4
REMARK VINA RESULT:      -6.5     10.299     11.589
REMARK  6 active torsions:
REMARK  status: ('A' for Active; 'I' for Inactive)
REMARK    1  A    between atoms: O2_2  and  C5_12 
REMARK    2  A    between atoms: O3_3  and  C7_14 
REMARK    3  A    between atoms: O5_5  and  C9_16 
REMARK    4  A    between atoms: O6_6  and  C13_20 
REMARK    5  A    between atoms: O7_7  and  C15_22 
REMARK    6  A    between atoms: C3_10  and  C4_11 
ROOT
ATOM      1  O1  UNK A          46.256  11.267  -8.006  0.00  0.00    -0.306 OA
ATOM      2  O4  UNK A          47.725   7.569  -8.885  0.00  0.00    -0.284 OA
ATOM      3  C1  UNK A          45.933   9.094  -9.037  0.00  0.00     0.084 A 
ATOM      4  C2  UNK A          45.488  10.372  -8.704  0.00  0.00     0.096 A 
ATOM      5  C3  UNK A          47.534  10.889  -7.626  0.00  0.00     0.123 A 
ATOM      6  C5  UNK A          48.079   9.684  -7.877  0.00  0.00     0.152 A 
ATOM      7  C6  UNK A          47.283   8.681  -8.625  0.00  0.00     0.223 A 
ATOM      8  C7  UNK A          45.105   8.223  -9.749  0.00  0.00     0.085 A 
ATOM      9  C8  UNK A          44.210  10.786  -9.081  0.00  0.00     0.075 A 
ATOM     10  C9  UNK A          43.381   9.919  -9.793  0.00  0.00     0.071 A 
ATOM     11  C11 UNK A          43.828   8.640 -10.126  0.00  0.00     0.074 A 
ENDROOT
BRANCH   5  12
ATOM     12  C4  UNK A          48.250  11.942  -6.885  0.00  0.00     0.004 A 
ATOM     13  C10 UNK A          48.085  12.060  -5.505  0.00  0.00     0.053 A 
ATOM     14  C13 UNK A          48.764  13.055  -4.803  0.00  0.00     0.099 A 
ATOM     15  C15 UNK A          49.607  13.936  -5.483  0.00  0.00     0.098 A 
ATOM     16  C14 UNK A          49.772  13.819  -6.863  0.00  0.00     0.040 A 
ATOM     17  C12 UNK A          49.093  12.822  -7.564  0.00  0.00     0.017 A 
BRANCH  14  18
ATOM     18  O6  UNK A          48.594  13.162  -3.456  0.00  0.00    -0.358 OA
ATOM     19  H9  UNK A          48.052  12.424  -3.134  0.00  0.00     0.217 HD
ENDBRANCH  14  18
BRANCH  15  20
ATOM     20  O7  UNK A          50.276  14.912  -4.808  0.00  0.00    -0.358 OA
ATOM     21  H10 UNK A          50.874  15.377  -5.414  0.00  0.00     0.217 HD
ENDBRANCH  15  20
ENDBRANCH   5  12
BRANCH   6  22
ATOM     22  O2  UNK A          49.342   9.326  -7.457  0.00  0.00    -0.355 OA
ATOM     23  H6  UNK A          49.762  10.075  -7.003  0.00  0.00     0.218 HD
ENDBRANCH   6  22
BRANCH   8  24
ATOM     24  O3  UNK A          45.491   6.963 -10.099  0.00  0.00    -0.360 OA
ATOM     25  H7  UNK A          46.362   6.759  -9.727  0.00  0.00     0.217 HD
ENDBRANCH   8  24
BRANCH  10  26
ATOM     26  O5  UNK A          42.135  10.321 -10.162  0.00  0.00    -0.361 OA
ATOM     27  H8  UNK A          42.118  11.292 -10.213  0.00  0.00     0.217 HD
ENDBRANCH  10  26
TORSDOF 6
ENDMDL
MODEL 5
REMARK VINA RESULT:      -6.2      9.759     11.508
REMARK  6 active torsions:
REMARK  status: ('A' for Active; 'I' for Inactive)
REMARK    1  A    between atoms: O2_2  and  C5_12 
REMARK    2  A    between atoms: O3_3  and  C7_14 
REMARK    3  A    between atoms: O5_5  and  C9_16 
REMARK    4  A    between atoms: O6_6  and  C13_20 
REMARK    5  A    between atoms: O7_7  and  C15_22 
REMARK    6  A    between atoms: C3_10  and  C4_11 
ROOT
ATOM      1  O1  UNK A          45.865  11.142  -7.865  0.00  0.00    -0.306 OA
ATOM      2  O4  UNK A          47.898   7.898  -9.263  0.00  0.00    -0.284 OA
ATOM      3  C1  UNK A          45.915   9.175  -9.286  0.00  0.00     0.084 A 
ATOM      4  C2  UNK A          45.274  10.300  -8.770  0.00  0.00     0.096 A 
ATOM      5  C3  UNK A          47.162  10.871  -7.457  0.00  0.00     0.123 A 
ATOM      6  C5  UNK A          47.887   9.816  -7.873  0.00  0.00     0.152 A 
ATOM      7  C6  UNK A          47.287   8.874  -8.848  0.00  0.00     0.223 A 
ATOM      8  C7  UNK A          45.262   8.351 -10.206  0.00  0.00     0.085 A 
ATOM      9  C8  UNK A          43.972  10.605  -9.169  0.00  0.00     0.075 A 
ATOM     10  C9  UNK A          43.317   9.785 -10.087  0.00  0.00     0.071 A 
ATOM     11  C11 UNK A          43.961   8.660 -10.604  0.00  0.00     0.074 A 
ENDROOT
BRANCH   5  12
ATOM     12  C4  UNK A          47.677  11.852  -6.486  0.00  0.00     0.004 A 
ATOM     13  C10 UNK A          48.571  12.840  -6.898  0.00  0.00     0.053 A 
ATOM     14  C13 UNK A          49.057  13.769  -5.980  0.00  0.00     0.099 A 
ATOM     15  C15 UNK A          48.650  13.710  -4.646  0.00  0.00     0.098 A 
ATOM     16  C14 UNK A          47.757  12.722  -4.233  0.00  0.00     0.040 A 
ATOM     17  C12 UNK A          47.270  11.793  -5.153  0.00  0.00     0.017 A 
BRANCH  14  18
ATOM     18  O6  UNK A          49.930  14.729  -6.394  0.00  0.00    -0.358 OA
ATOM     19  H9  UNK A          50.597  14.884  -5.706  0.00  0.00     0.217 HD
ENDBRANCH  14  18
BRANCH  15  20
ATOM     20  O7  UNK A          49.117  14.613  -3.739  0.00  0.00    -0.358 OA
ATOM     21  H10 UNK A          49.823  15.145  -4.140  0.00  0.00     0.217 HD
ENDBRANCH  15  20
ENDBRANCH   5  12
BRANCH   6  22
ATOM     22  O2  UNK A          49.163   9.556  -7.422  0.00  0.00    -0.355 OA
ATOM     23  H6  UNK A          49.508  10.327  -6.944  0.00  0.00     0.218 HD
ENDBRANCH   6  22
BRANCH   8  24
ATOM     24  O3  UNK A          45.844   7.241 -10.741  0.00  0.00    -0.360 OA
ATOM     25  H7  UNK A          46.729   7.108 -10.369  0.00  0.00     0.217 HD
ENDBRANCH   8  24
BRANCH  10  26
ATOM     26  O5  UNK A          42.048  10.081 -10.478  0.00  0.00    -0.361 OA
ATOM     27  H8  UNK A          41.752   9.415 -11.122  0.00  0.00     0.217 HD
ENDBRANCH  10  26
TORSDOF 6
ENDMDL
MODEL 6
REMARK VINA RESULT:      -6.1     10.068     11.650
REMARK  6 active torsions:
REMARK  status: ('A' for Active; 'I' for Inactive)
REMARK    1  A    between atoms: O2_2  and  C5_12 
REMARK    2  A    between atoms: O3_3  and  C7_14 
REMARK    3  A    between atoms: O5_5  and  C9_16 
REMARK    4  A    between atoms: O6_6  and  C13_20 
REMARK    5  A    between atoms: O7_7  and  C15_22 
REMARK    6  A    between atoms: C3_10  and  C4_11 
ROOT
ATOM      1  O1  UNK A          46.950  11.986  -7.187  0.00  0.00    -0.306 OA
ATOM      2  O4  UNK A          49.662   8.972  -6.770  0.00  0.00    -0.284 OA
ATOM      3  C1  UNK A          48.861  11.058  -6.014  0.00  0.00     0.084 A 
ATOM      4  C2  UNK A          47.907  12.055  -6.209  0.00  0.00     0.096 A 
ATOM      5  C3  UNK A          46.923  10.870  -8.009  0.00  0.00     0.123 A 
ATOM      6  C5  UNK A          47.790   9.844  -7.931  0.00  0.00     0.152 A 
ATOM      7  C6  UNK A          48.846   9.877  -6.891  0.00  0.00     0.223 A 
ATOM      8  C7  UNK A          49.815  11.183  -5.000  0.00  0.00     0.085 A 
ATOM      9  C8  UNK A          47.903  13.186  -5.391  0.00  0.00     0.075 A 
ATOM     10  C9  UNK A          48.854  13.314  -4.378  0.00  0.00     0.071 A 
ATOM     11  C11 UNK A          49.808  12.313  -4.184  0.00  0.00     0.074 A 
ENDROOT
BRANCH   5  12
ATOM     12  C4  UNK A          45.847  10.923  -9.014  0.00  0.00     0.004 A 
ATOM     13  C10 UNK A          44.608  10.342  -8.743  0.00  0.00     0.053 A 
ATOM     14  C13 UNK A          43.590  10.393  -9.694  0.00  0.00     0.099 A 
ATOM     15  C15 UNK A          43.811  11.024 -10.919  0.00  0.00     0.098 A 
ATOM     16  C14 UNK A          45.049  11.604 -11.191  0.00  0.00     0.040 A 
ATOM     17  C12 UNK A          46.068  11.554 -10.239  0.00  0.00     0.017 A 
BRANCH  14  18
ATOM     18  O6  UNK A          42.385   9.821  -9.419  0.00  0.00    -0.358 OA
ATOM     19  H9  UNK A          41.941   9.575 -10.247  0.00  0.00     0.217 HD
ENDBRANCH  14  18
BRANCH  15  20
ATOM     20  O7  UNK A          42.823  11.081 -11.856  0.00  0.00    -0.358 OA
ATOM     21  H10 UNK A          42.288  10.273 -11.818  0.00  0.00     0.217 HD
ENDBRANCH  15  20
ENDBRANCH   5  12
BRANCH   6  22
ATOM     22  O2  UNK A          47.755   8.763  -8.785  0.00  0.00    -0.355 OA
ATOM     23  H6  UNK A          48.186   8.992  -9.625  0.00  0.00     0.218 HD
ENDBRANCH   6  22
BRANCH   8  24
ATOM     24  O3  UNK A          50.768  10.237  -4.768  0.00  0.00    -0.360 OA
ATOM     25  H7  UNK A          51.638  10.552  -5.058  0.00  0.00     0.217 HD
ENDBRANCH   8  24
BRANCH  10  26
ATOM     26  O5  UNK A          48.851  14.415  -3.579  0.00  0.00    -0.361 OA
ATOM     27  H8  UNK A          48.120  14.998  -3.848  0.00  0.00     0.217 HD
ENDBRANCH  10  26
TORSDOF 6
ENDMDL
MODEL 7
REMARK VINA RESULT:      -6.0     10.461     12.763
REMARK  6 active torsions:
REMARK  status: ('A' for Active; 'I' for Inactive)
REMARK    1  A    between atoms: O2_2  and  C5_12 
REMARK    2  A    between atoms: O3_3  and  C7_14 
REMARK    3  A    between atoms: O5_5  and  C9_16 
REMARK    4  A    between atoms: O6_6  and  C13_20 
REMARK    5  A    between atoms: O7_7  and  C15_22 
REMARK    6  A    between atoms: C3_10  and  C4_11 
ROOT
ATOM      1  O1  UNK A          49.340  12.296  -7.432  0.00  0.00    -0.306 OA
ATOM      2  O4  UNK A          50.544  11.005  -3.758  0.00  0.00    -0.284 OA
ATOM      3  C1  UNK A          50.890  12.472  -5.572  0.00  0.00     0.084 A 
ATOM      4  C2  UNK A          50.428  12.867  -6.827  0.00  0.00     0.096 A 
ATOM      5  C3  UNK A          48.661  11.291  -6.760  0.00  0.00     0.123 A 
ATOM      6  C5  UNK A          49.007  10.813  -5.551  0.00  0.00     0.152 A 
ATOM      7  C6  UNK A          50.182  11.397  -4.860  0.00  0.00     0.223 A 
ATOM      8  C7  UNK A          52.007  13.090  -5.005  0.00  0.00     0.085 A 
ATOM      9  C8  UNK A          51.085  13.883  -7.523  0.00  0.00     0.075 A 
ATOM     10  C9  UNK A          52.200  14.503  -6.960  0.00  0.00     0.071 A 
ATOM     11  C11 UNK A          52.660  14.106  -5.703  0.00  0.00     0.074 A 
ENDROOT
BRANCH   5  12
ATOM     12  C4  UNK A          47.513  10.765  -7.520  0.00  0.00     0.004 A 
ATOM     13  C10 UNK A          46.305  11.463  -7.532  0.00  0.00     0.053 A 
ATOM     14  C13 UNK A          45.219  10.966  -8.253  0.00  0.00     0.099 A 
ATOM     15  C15 UNK A          45.341   9.769  -8.960  0.00  0.00     0.098 A 
ATOM     16  C14 UNK A          46.548   9.071  -8.947  0.00  0.00     0.040 A 
ATOM     17  C12 UNK A          47.634   9.569  -8.228  0.00  0.00     0.017 A 
BRANCH  14  18
ATOM     18  O6  UNK A          44.045  11.655  -8.256  0.00  0.00    -0.358 OA
ATOM     19  H9  UNK A          43.325  11.079  -7.950  0.00  0.00     0.217 HD
ENDBRANCH  14  18
BRANCH  15  20
ATOM     20  O7  UNK A          44.287   9.274  -9.668  0.00  0.00    -0.358 OA
ATOM     21  H10 UNK A          44.494   9.290 -10.616  0.00  0.00     0.217 HD
ENDBRANCH  15  20
ENDBRANCH   5  12
BRANCH   6  22
ATOM     22  O2  UNK A          48.330   9.790  -4.924  0.00  0.00    -0.355 OA
ATOM     23  H6  UNK A          48.925   9.325  -4.314  0.00  0.00     0.218 HD
ENDBRANCH   6  22
BRANCH   8  24
ATOM     24  O3  UNK A          52.498  12.742  -3.782  0.00  0.00    -0.360 OA
ATOM     25  H7  UNK A          53.437  12.512  -3.846  0.00  0.00     0.217 HD
ENDBRANCH   8  24
BRANCH  10  26
ATOM     26  O5  UNK A          52.841  15.493  -7.636  0.00  0.00    -0.361 OA
ATOM     27  H8  UNK A          53.488  15.914  -7.044  0.00  0.00     0.217 HD
ENDBRANCH  10  26
TORSDOF 6
ENDMDL
MODEL 8
REMARK VINA RESULT:      -6.0      9.981     12.355
REMARK  6 active torsions:
REMARK  status: ('A' for Active; 'I' for Inactive)
REMARK    1  A    between atoms: O2_2  and  C5_12 
REMARK    2  A    between atoms: O3_3  and  C7_14 
REMARK    3  A    between atoms: O5_5  and  C9_16 
REMARK    4  A    between atoms: O6_6  and  C13_20 
REMARK    5  A    between atoms: O7_7  and  C15_22 
REMARK    6  A    between atoms: C3_10  and  C4_11 
ROOT
ATOM      1  O1  UNK A          47.364  11.874  -7.030  0.00  0.00    -0.306 OA
ATOM      2  O4  UNK A          50.656  12.947  -9.180  0.00  0.00    -0.284 OA
ATOM      3  C1  UNK A          49.407  13.173  -7.192  0.00  0.00     0.084 A 
ATOM      4  C2  UNK A          48.263  12.767  -6.508  0.00  0.00     0.096 A 
ATOM      5  C3  UNK A          47.612  11.342  -8.286  0.00  0.00     0.123 A 
ATOM      6  C5  UNK A          48.673  11.657  -9.051  0.00  0.00     0.152 A 
ATOM      7  C6  UNK A          49.670  12.623  -8.530  0.00  0.00     0.223 A 
ATOM      8  C7  UNK A          50.288  14.089  -6.610  0.00  0.00     0.085 A 
ATOM      9  C8  UNK A          47.991  13.277  -5.238  0.00  0.00     0.075 A 
ATOM     10  C9  UNK A          48.868  14.191  -4.654  0.00  0.00     0.071 A 
ATOM     11  C11 UNK A          50.014  14.596  -5.340  0.00  0.00     0.074 A 
ENDROOT
BRANCH   5  12
ATOM     12  C4  UNK A          46.571  10.397  -8.726  0.00  0.00     0.004 A 
ATOM     13  C10 UNK A          45.232  10.787  -8.736  0.00  0.00     0.053 A 
ATOM     14  C13 UNK A          44.247   9.893  -9.154  0.00  0.00     0.099 A 
ATOM     15  C15 UNK A          44.602   8.606  -9.561  0.00  0.00     0.098 A 
ATOM     16  C14 UNK A          45.940   8.215  -9.552  0.00  0.00     0.040 A 
ATOM     17  C12 UNK A          46.925   9.110  -9.134  0.00  0.00     0.017 A 
BRANCH  14  18
ATOM     18  O6  UNK A          42.943  10.285  -9.158  0.00  0.00    -0.358 OA
ATOM     19  H9  UNK A          42.873  11.188  -9.508  0.00  0.00     0.217 HD
ENDBRANCH  14  18
BRANCH  15  20
ATOM     20  O7  UNK A          43.648   7.724  -9.973  0.00  0.00    -0.358 OA
ATOM     21  H10 UNK A          42.885   8.207 -10.326  0.00  0.00     0.217 HD
ENDBRANCH  15  20
ENDBRANCH   5  12
BRANCH   6  22
ATOM     22  O2  UNK A          48.874  11.135 -10.311  0.00  0.00    -0.355 OA
ATOM     23  H6  UNK A          48.023  11.046 -10.771  0.00  0.00     0.218 HD
ENDBRANCH   6  22
BRANCH   8  24
ATOM     24  O3  UNK A          51.420  14.519  -7.235  0.00  0.00    -0.360 OA
ATOM     25  H7  UNK A          52.165  14.537  -6.615  0.00  0.00     0.217 HD
ENDBRANCH   8  24
BRANCH  10  26
ATOM     26  O5  UNK A          48.605  14.688  -3.415  0.00  0.00    -0.361 OA
ATOM     27  H8  UNK A          49.439  14.981  -3.008  0.00  0.00     0.217 HD
ENDBRANCH  10  26
TORSDOF 6
ENDMDL
MODEL 9
REMARK VINA RESULT:      -6.0     10.634     12.344
REMARK  6 active torsions:
REMARK  status: ('A' for Active; 'I' for Inactive)
REMARK    1  A    between atoms: O2_2  and  C5_12 
REMARK    2  A    between atoms: O3_3  and  C7_14 
REMARK    3  A    between atoms: O5_5  and  C9_16 
REMARK    4  A    between atoms: O6_6  and  C13_20 
REMARK    5  A    between atoms: O7_7  and  C15_22 
REMARK    6  A    between atoms: C3_10  and  C4_11 
ROOT
ATOM      1  O1  UNK A          49.982  10.072  -4.755  0.00  0.00    -0.306 OA
ATOM      2  O4  UNK A          47.746  13.210  -6.083  0.00  0.00    -0.284 OA
ATOM      3  C1  UNK A          48.416  10.968  -6.378  0.00  0.00     0.084 A 
ATOM      4  C2  UNK A          49.203   9.935  -5.874  0.00  0.00     0.096 A 
ATOM      5  C3  UNK A          49.975  11.288  -4.089  0.00  0.00     0.123 A 
ATOM      6  C5  UNK A          49.267  12.365  -4.475  0.00  0.00     0.152 A 
ATOM      7  C6  UNK A          48.413  12.264  -5.684  0.00  0.00     0.223 A 
ATOM      8  C7  UNK A          47.643  10.770  -7.525  0.00  0.00     0.085 A 
ATOM      9  C8  UNK A          49.224   8.696  -6.517  0.00  0.00     0.075 A 
ATOM     10  C9  UNK A          48.453   8.495  -7.662  0.00  0.00     0.071 A 
ATOM     11  C11 UNK A          47.664   9.531  -8.165  0.00  0.00     0.074 A 
ENDROOT
BRANCH   5  12
ATOM     12  C4  UNK A          50.852  11.300  -2.905  0.00  0.00     0.004 A 
ATOM     13  C10 UNK A          50.316  11.087  -1.635  0.00  0.00     0.053 A 
ATOM     14  C13 UNK A          51.146  11.097  -0.516  0.00  0.00     0.099 A 
ATOM     15  C15 UNK A          52.515  11.324  -0.665  0.00  0.00     0.098 A 
ATOM     16  C14 UNK A          53.052  11.537  -1.934  0.00  0.00     0.040 A 
ATOM     17  C12 UNK A          52.221  11.525  -3.055  0.00  0.00     0.017 A 
BRANCH  14  18
ATOM     18  O6  UNK A          50.611  10.889   0.719  0.00  0.00    -0.358 OA
ATOM     19  H9  UNK A          50.091  11.665   0.987  0.00  0.00     0.217 HD
ENDBRANCH  14  18
BRANCH  15  20
ATOM     20  O7  UNK A          53.337  11.335   0.421  0.00  0.00    -0.358 OA
ATOM     21  H10 UNK A          54.115  11.885   0.238  0.00  0.00     0.217 HD
ENDBRANCH  15  20
ENDBRANCH   5  12
BRANCH   6  22
ATOM     22  O2  UNK A          49.307  13.570  -3.808  0.00  0.00    -0.355 OA
ATOM     23  H6  UNK A          49.674  14.256  -4.389  0.00  0.00     0.218 HD
ENDBRANCH   6  22
BRANCH   8  24
ATOM     24  O3  UNK A          46.856  11.747  -8.058  0.00  0.00    -0.360 OA
ATOM     25  H7  UNK A          46.700  12.450  -7.410  0.00  0.00     0.217 HD
ENDBRANCH   8  24
BRANCH  10  26
ATOM     26  O5  UNK A          48.472   7.288  -8.290  0.00  0.00    -0.361 OA
ATOM     27  H8  UNK A          47.637   7.171  -8.775  0.00  0.00     0.217 HD
ENDBRANCH  10  26
TORSDOF 6
ENDMDL
MODEL 10
REMARK VINA RESULT:      -6.0      9.678     12.101
REMARK  6 active torsions:
REMARK  status: ('A' for Active; 'I' for Inactive)
REMARK    1  A    between atoms: O2_2  and  C5_12 
REMARK    2  A    between atoms: O3_3  and  C7_14 
REMARK    3  A    between atoms: O5_5  and  C9_16 
REMARK    4  A    between atoms: O6_6  and  C13_20 
REMARK    5  A    between atoms: O7_7  and  C15_22 
REMARK    6  A    between atoms: C3_10  and  C4_11 
ROOT
ATOM      1  O1  UNK A          48.653   9.488  -7.032  0.00  0.00    -0.306 OA
ATOM      2  O4  UNK A          45.930   9.539 -10.064  0.00  0.00    -0.284 OA
ATOM      3  C1  UNK A          47.600   8.349  -8.899  0.00  0.00     0.084 A 
ATOM      4  C2  UNK A          48.513   8.395  -7.847  0.00  0.00     0.096 A 
ATOM      5  C3  UNK A          47.842  10.590  -7.257  0.00  0.00     0.123 A 
ATOM      6  C5  UNK A          46.929  10.676  -8.242  0.00  0.00     0.152 A 
ATOM      7  C6  UNK A          46.746   9.520  -9.152  0.00  0.00     0.223 A 
ATOM      8  C7  UNK A          47.502   7.207  -9.698  0.00  0.00     0.085 A 
ATOM      9  C8  UNK A          49.336   7.298  -7.588  0.00  0.00     0.075 A 
ATOM     10  C9  UNK A          49.241   6.156  -8.384  0.00  0.00     0.071 A 
ATOM     11  C11 UNK A          48.325   6.112  -9.437  0.00  0.00     0.074 A 
ENDROOT
BRANCH   5  12
ATOM     12  C4  UNK A          48.094  11.692  -6.313  0.00  0.00     0.004 A 
ATOM     13  C10 UNK A          48.940  12.742  -6.673  0.00  0.00     0.053 A 
ATOM     14  C13 UNK A          49.177  13.785  -5.780  0.00  0.00     0.099 A 
ATOM     15  C15 UNK A          48.570  13.779  -4.524  0.00  0.00     0.098 A 
ATOM     16  C14 UNK A          47.724  12.731  -4.163  0.00  0.00     0.040 A 
ATOM     17  C12 UNK A          47.486  11.687  -5.057  0.00  0.00     0.017 A 
BRANCH  14  18
ATOM     18  O6  UNK A          50.006  14.803  -6.142  0.00  0.00    -0.358 OA
ATOM     19  H9  UNK A          49.624  15.286  -6.893  0.00  0.00     0.217 HD
ENDBRANCH  14  18
BRANCH  15  20
ATOM     20  O7  UNK A          48.793  14.795  -3.642  0.00  0.00    -0.358 OA
ATOM     21  H10 UNK A          49.644  15.216  -3.837  0.00  0.00     0.217 HD
ENDBRANCH  15  20
ENDBRANCH   5  12
BRANCH   6  22
ATOM     22  O2  UNK A          46.161  11.800  -8.460  0.00  0.00    -0.355 OA
ATOM     23  H6  UNK A          45.396  11.574  -9.014  0.00  0.00     0.218 HD
ENDBRANCH   6  22
BRANCH   8  24
ATOM     24  O3  UNK A          46.627   7.111 -10.738  0.00  0.00    -0.360 OA
ATOM     25  H7  UNK A          46.719   6.254 -11.181  0.00  0.00     0.217 HD
ENDBRANCH   8  24
BRANCH  10  26
ATOM     26  O5  UNK A          50.041   5.085  -8.133  0.00  0.00    -0.361 OA
ATOM     27  H8  UNK A          49.484   4.311  -7.945  0.00  0.00     0.217 HD
ENDBRANCH  10  26
TORSDOF 6
ENDMDL
MODEL 11
REMARK VINA RESULT:      -5.9      9.977     12.649
REMARK  6 active torsions:
REMARK  status: ('A' for Active; 'I' for Inactive)
REMARK    1  A    between atoms: O2_2  and  C5_12 
REMARK    2  A    between atoms: O3_3  and  C7_14 
REMARK    3  A    between atoms: O5_5  and  C9_16 
REMARK    4  A    between atoms: O6_6  and  C13_20 
REMARK    5  A    between atoms: O7_7  and  C15_22 
REMARK    6  A    between atoms: C3_10  and  C4_11 
ROOT
ATOM      1  O1  UNK A          48.700  12.408  -8.635  0.00  0.00    -0.306 OA
ATOM      2  O4  UNK A          45.076  11.078  -9.943  0.00  0.00    -0.284 OA
ATOM      3  C1  UNK A          47.193  11.965 -10.485  0.00  0.00     0.084 A 
ATOM      4  C2  UNK A          48.411  12.407  -9.975  0.00  0.00     0.096 A 
ATOM      5  C3  UNK A          47.742  11.935  -7.752  0.00  0.00     0.123 A 
ATOM      6  C5  UNK A          46.525  11.488  -8.114  0.00  0.00     0.152 A 
ATOM      7  C6  UNK A          46.167  11.474  -9.553  0.00  0.00     0.223 A 
ATOM      8  C7  UNK A          46.954  11.989 -11.862  0.00  0.00     0.085 A 
ATOM      9  C8  UNK A          49.400  12.880 -10.839  0.00  0.00     0.075 A 
ATOM     10  C9  UNK A          49.165  12.906 -12.214  0.00  0.00     0.071 A 
ATOM     11  C11 UNK A          47.944  12.461 -12.724  0.00  0.00     0.074 A 
ENDROOT
BRANCH   5  12
ATOM     12  C4  UNK A          48.178  11.989  -6.346  0.00  0.00     0.004 A 
ATOM     13  C10 UNK A          48.156  13.201  -5.654  0.00  0.00     0.053 A 
ATOM     14  C13 UNK A          48.568  13.252  -4.323  0.00  0.00     0.099 A 
ATOM     15  C15 UNK A          49.005  12.091  -3.683  0.00  0.00     0.098 A 
ATOM     16  C14 UNK A          49.028  10.880  -4.374  0.00  0.00     0.040 A 
ATOM     17  C12 UNK A          48.615  10.829  -5.706  0.00  0.00     0.017 A 
BRANCH  14  18
ATOM     18  O6  UNK A          48.543  14.440  -3.658  0.00  0.00    -0.358 OA
ATOM     19  H9  UNK A          47.628  14.757  -3.586  0.00  0.00     0.217 HD
ENDBRANCH  14  18
BRANCH  15  20
ATOM     20  O7  UNK A          49.409  12.128  -2.382  0.00  0.00    -0.358 OA
ATOM     21  H10 UNK A          50.375  12.048  -2.337  0.00  0.00     0.217 HD
ENDBRANCH  15  20
ENDBRANCH   5  12
BRANCH   6  22
ATOM     22  O2  UNK A          45.582  11.054  -7.207  0.00  0.00    -0.355 OA
ATOM     23  H6  UNK A          45.887  11.234  -6.303  0.00  0.00     0.218 HD
ENDBRANCH   6  22
BRANCH   8  24
ATOM     24  O3  UNK A          45.781  11.568 -12.412  0.00  0.00    -0.360 OA
ATOM     25  H7  UNK A          45.459  12.211 -13.061  0.00  0.00     0.217 HD
ENDBRANCH   8  24
BRANCH  10  26
ATOM     26  O5  UNK A          50.127  13.366 -13.059  0.00  0.00    -0.361 OA
ATOM     27  H8  UNK A          50.279  14.310 -12.881  0.00  0.00     0.217 HD
ENDBRANCH  10  26
TORSDOF 6
ENDMDL
MODEL 12
REMARK VINA RESULT:      -5.9      9.882     12.331
REMARK  6 active torsions:
REMARK  status: ('A' for Active; 'I' for Inactive)
REMARK    1  A    between atoms: O2_2  and  C5_12 
REMARK    2  A    between atoms: O3_3  and  C7_14 
REMARK    3  A    between atoms: O5_5  and  C9_16 
REMARK    4  A    between atoms: O6_6  and  C13_20 
REMARK    5  A    between atoms: O7_7  and  C15_22 
REMARK    6  A    between atoms: C3_10  and  C4_11 
ROOT
ATOM      1  O1  UNK A          47.098  12.046  -7.021  0.00  0.00    -0.306 OA
ATOM      2  O4  UNK A          50.430  12.886  -9.210  0.00  0.00    -0.284 OA
ATOM      3  C1  UNK A          49.231  13.189  -7.203  0.00  0.00     0.084 A 
ATOM      4  C2  UNK A          48.069  12.864  -6.505  0.00  0.00     0.096 A 
ATOM      5  C3  UNK A          47.287  11.508  -8.284  0.00  0.00     0.123 A 
ATOM      6  C5  UNK A          48.358  11.748  -9.063  0.00  0.00     0.152 A 
ATOM      7  C6  UNK A          49.432  12.632  -8.549  0.00  0.00     0.223 A 
ATOM      8  C7  UNK A          50.186  14.030  -6.627  0.00  0.00     0.085 A 
ATOM      9  C8  UNK A          47.854  13.382  -5.228  0.00  0.00     0.075 A 
ATOM     10  C9  UNK A          48.806  14.222  -4.649  0.00  0.00     0.071 A 
ATOM     11  C11 UNK A          49.969  14.545  -5.349  0.00  0.00     0.074 A 
ENDROOT
BRANCH   5  12
ATOM     12  C4  UNK A          46.171  10.648  -8.716  0.00  0.00     0.004 A 
ATOM     13  C10 UNK A          46.419   9.342  -9.141  0.00  0.00     0.053 A 
ATOM     14  C13 UNK A          45.363   8.528  -9.548  0.00  0.00     0.099 A 
ATOM     15  C15 UNK A          44.058   9.021  -9.534  0.00  0.00     0.098 A 
ATOM     16  C14 UNK A          43.809  10.326  -9.110  0.00  0.00     0.040 A 
ATOM     17  C12 UNK A          44.866  11.140  -8.701  0.00  0.00     0.017 A 
BRANCH  14  18
ATOM     18  O6  UNK A          45.617   7.256  -9.962  0.00  0.00    -0.358 OA
ATOM     19  H9  UNK A          44.781   6.790 -10.124  0.00  0.00     0.217 HD
ENDBRANCH  14  18
BRANCH  15  20
ATOM     20  O7  UNK A          43.017   8.234  -9.929  0.00  0.00    -0.358 OA
ATOM     21  H10 UNK A          42.722   8.501 -10.814  0.00  0.00     0.217 HD
ENDBRANCH  15  20
ENDBRANCH   5  12
BRANCH   6  22
ATOM     22  O2  UNK A          48.501  11.223 -10.329  0.00  0.00    -0.355 OA
ATOM     23  H6  UNK A          48.868  11.896 -10.925  0.00  0.00     0.218 HD
ENDBRANCH   6  22
BRANCH   8  24
ATOM     24  O3  UNK A          51.339  14.378  -7.265  0.00  0.00    -0.360 OA
ATOM     25  H7  UNK A          51.148  14.706  -8.157  0.00  0.00     0.217 HD
ENDBRANCH   8  24
BRANCH  10  26
ATOM     26  O5  UNK A          48.598  14.727  -3.404  0.00  0.00    -0.361 OA
ATOM     27  H8  UNK A          47.745  15.194  -3.390  0.00  0.00     0.217 HD
ENDBRANCH  10  26
TORSDOF 6
ENDMDL
MODEL 13
REMARK VINA RESULT:      -5.8     10.462     12.068
REMARK  6 active torsions:
REMARK  status: ('A' for Active; 'I' for Inactive)
REMARK    1  A    between atoms: O2_2  and  C5_12 
REMARK    2  A    between atoms: O3_3  and  C7_14 
REMARK    3  A    between atoms: O5_5  and  C9_16 
REMARK    4  A    between atoms: O6_6  and  C13_20 
REMARK    5  A    between atoms: O7_7  and  C15_22 
REMARK    6  A    between atoms: C3_10  and  C4_11 
ROOT
ATOM      1  O1  UNK A          48.772  10.438  -5.656  0.00  0.00    -0.306 OA
ATOM      2  O4  UNK A          51.167  13.607  -6.564  0.00  0.00    -0.284 OA
ATOM      3  C1  UNK A          50.663  11.846  -5.080  0.00  0.00     0.084 A 
ATOM      4  C2  UNK A          49.808  10.775  -4.825  0.00  0.00     0.096 A 
ATOM      5  C3  UNK A          48.575  11.186  -6.806  0.00  0.00     0.123 A 
ATOM      6  C5  UNK A          49.323  12.247  -7.163  0.00  0.00     0.152 A 
ATOM      7  C6  UNK A          50.452  12.652  -6.291  0.00  0.00     0.223 A 
ATOM      8  C7  UNK A          51.703  12.144  -4.195  0.00  0.00     0.085 A 
ATOM      9  C8  UNK A          49.987   9.996  -3.681  0.00  0.00     0.075 A 
ATOM     10  C9  UNK A          51.024  10.291  -2.796  0.00  0.00     0.071 A 
ATOM     11  C11 UNK A          51.880  11.363  -3.053  0.00  0.00     0.074 A 
ENDROOT
BRANCH   5  12
ATOM     12  C4  UNK A          47.432  10.718  -7.609  0.00  0.00     0.004 A 
ATOM     13  C10 UNK A          46.224  11.417  -7.579  0.00  0.00     0.053 A 
ATOM     14  C13 UNK A          45.143  10.975  -8.339  0.00  0.00     0.099 A 
ATOM     15  C15 UNK A          45.267   9.831  -9.129  0.00  0.00     0.098 A 
ATOM     16  C14 UNK A          46.474   9.132  -9.159  0.00  0.00     0.040 A 
ATOM     17  C12 UNK A          47.556   9.575  -8.399  0.00  0.00     0.017 A 
BRANCH  14  18
ATOM     18  O6  UNK A          43.969  11.664  -8.301  0.00  0.00    -0.358 OA
ATOM     19  H9  UNK A          43.228  11.045  -8.198  0.00  0.00     0.217 HD
ENDBRANCH  14  18
BRANCH  15  20
ATOM     20  O7  UNK A          44.218   9.390  -9.878  0.00  0.00    -0.358 OA
ATOM     21  H10 UNK A          43.773   8.660  -9.419  0.00  0.00     0.217 HD
ENDBRANCH  15  20
ENDBRANCH   5  12
BRANCH   6  22
ATOM     22  O2  UNK A          49.080  12.991  -8.297  0.00  0.00    -0.355 OA
ATOM     23  H6  UNK A          48.129  13.169  -8.378  0.00  0.00     0.218 HD
ENDBRANCH   6  22
BRANCH   8  24
ATOM     24  O3  UNK A          52.566  13.178  -4.398  0.00  0.00    -0.360 OA
ATOM     25  H7  UNK A          53.408  13.012  -3.947  0.00  0.00     0.217 HD
ENDBRANCH   8  24
BRANCH  10  26
ATOM     26  O5  UNK A          51.200   9.532  -1.680  0.00  0.00    -0.361 OA
ATOM     27  H8  UNK A          50.727   8.690  -1.792  0.00  0.00     0.217 HD
ENDBRANCH  10  26
TORSDOF 6
ENDMDL
MODEL 14
REMARK VINA RESULT:      -5.8     10.534     13.000
REMARK  6 active torsions:
REMARK  status: ('A' for Active; 'I' for Inactive)
REMARK    1  A    between atoms: O2_2  and  C5_12 
REMARK    2  A    between atoms: O3_3  and  C7_14 
REMARK    3  A    between atoms: O5_5  and  C9_16 
REMARK    4  A    between atoms: O6_6  and  C13_20 
REMARK    5  A    between atoms: O7_7  and  C15_22 
REMARK    6  A    between atoms: C3_10  and  C4_11 
ROOT
ATOM      1  O1  UNK A          49.279  12.329  -7.799  0.00  0.00    -0.306 OA
ATOM      2  O4  UNK A          50.352  11.879  -3.893  0.00  0.00    -0.284 OA
ATOM      3  C1  UNK A          50.836  12.816  -6.002  0.00  0.00     0.084 A 
ATOM      4  C2  UNK A          50.416  12.930  -7.326  0.00  0.00     0.096 A 
ATOM      5  C3  UNK A          48.507  11.587  -6.918  0.00  0.00     0.123 A 
ATOM      6  C5  UNK A          48.805  11.392  -5.620  0.00  0.00     0.152 A 
ATOM      7  C6  UNK A          50.029  12.019  -5.066  0.00  0.00     0.223 A 
ATOM      8  C7  UNK A          52.006  13.450  -5.577  0.00  0.00     0.085 A 
ATOM      9  C8  UNK A          51.166  13.679  -8.234  0.00  0.00     0.075 A 
ATOM     10  C9  UNK A          52.334  14.313  -7.813  0.00  0.00     0.071 A 
ATOM     11  C11 UNK A          52.753  14.198  -6.487  0.00  0.00     0.074 A 
ENDROOT
BRANCH   5  12
ATOM     12  C4  UNK A          47.315  10.998  -7.553  0.00  0.00     0.004 A 
ATOM     13  C10 UNK A          47.396   9.746  -8.164  0.00  0.00     0.053 A 
ATOM     14  C13 UNK A          46.268   9.188  -8.764  0.00  0.00     0.099 A 
ATOM     15  C15 UNK A          45.058   9.883  -8.755  0.00  0.00     0.098 A 
ATOM     16  C14 UNK A          44.976  11.134  -8.145  0.00  0.00     0.040 A 
ATOM     17  C12 UNK A          46.105  11.692  -7.544  0.00  0.00     0.017 A 
BRANCH  14  18
ATOM     18  O6  UNK A          46.359   7.966  -9.358  0.00  0.00    -0.358 OA
ATOM     19  H9  UNK A          46.302   7.268  -8.685  0.00  0.00     0.217 HD
ENDBRANCH  14  18
BRANCH  15  20
ATOM     20  O7  UNK A          43.948   9.347  -9.337  0.00  0.00    -0.358 OA
ATOM     21  H10 UNK A          43.161   9.838  -9.053  0.00  0.00     0.217 HD
ENDBRANCH  15  20
ENDBRANCH   5  12
BRANCH   6  22
ATOM     22  O2  UNK A          48.034  10.621  -4.778  0.00  0.00    -0.355 OA
ATOM     23  H6  UNK A          48.582  10.269  -4.058  0.00  0.00     0.218 HD
ENDBRANCH   6  22
BRANCH   8  24
ATOM     24  O3  UNK A          52.461  13.370  -4.295  0.00  0.00    -0.360 OA
ATOM     25  H7  UNK A          52.081  14.079  -3.755  0.00  0.00     0.217 HD
ENDBRANCH   8  24
BRANCH  10  26
ATOM     26  O5  UNK A          53.067  15.044  -8.697  0.00  0.00    -0.361 OA
ATOM     27  H8  UNK A          53.026  15.982  -8.442  0.00  0.00     0.217 HD
ENDBRANCH  10  26
TORSDOF 6
ENDMDL
MODEL 15
REMARK VINA RESULT:      -5.8      9.887     11.925
REMARK  6 active torsions:
REMARK  status: ('A' for Active; 'I' for Inactive)
REMARK    1  A    between atoms: O2_2  and  C5_12 
REMARK    2  A    between atoms: O3_3  and  C7_14 
REMARK    3  A    between atoms: O5_5  and  C9_16 
REMARK    4  A    between atoms: O6_6  and  C13_20 
REMARK    5  A    between atoms: O7_7  and  C15_22 
REMARK    6  A    between atoms: C3_10  and  C4_11 
ROOT
ATOM      1  O1  UNK A          48.710   9.575  -6.959  0.00  0.00    -0.306 OA
ATOM      2  O4  UNK A          45.804   9.479  -9.815  0.00  0.00    -0.284 OA
ATOM      3  C1  UNK A          47.612   8.386  -8.767  0.00  0.00     0.084 A 
ATOM      4  C2  UNK A          48.584   8.480  -7.774  0.00  0.00     0.096 A 
ATOM      5  C3  UNK A          47.822  10.627  -7.122  0.00  0.00     0.123 A 
ATOM      6  C5  UNK A          46.845  10.664  -8.047  0.00  0.00     0.152 A 
ATOM      7  C6  UNK A          46.675   9.504  -8.955  0.00  0.00     0.223 A 
ATOM      8  C7  UNK A          47.532   7.244  -9.569  0.00  0.00     0.085 A 
ATOM      9  C8  UNK A          49.486   7.434  -7.578  0.00  0.00     0.075 A 
ATOM     10  C9  UNK A          49.410   6.292  -8.377  0.00  0.00     0.071 A 
ATOM     11  C11 UNK A          48.434   6.199  -9.371  0.00  0.00     0.074 A 
ENDROOT
BRANCH   5  12
ATOM     12  C4  UNK A          48.066  11.737  -6.185  0.00  0.00     0.004 A 
ATOM     13  C10 UNK A          48.391  11.470  -4.855  0.00  0.00     0.053 A 
ATOM     14  C13 UNK A          48.624  12.520  -3.968  0.00  0.00     0.099 A 
ATOM     15  C15 UNK A          48.530  13.840  -4.411  0.00  0.00     0.098 A 
ATOM     16  C14 UNK A          48.205  14.108  -5.741  0.00  0.00     0.040 A 
ATOM     17  C12 UNK A          47.973  13.057  -6.628  0.00  0.00     0.017 A 
BRANCH  14  18
ATOM     18  O6  UNK A          48.939  12.247  -2.672  0.00  0.00    -0.358 OA
ATOM     19  H9  UNK A          48.297  12.674  -2.081  0.00  0.00     0.217 HD
ENDBRANCH  14  18
BRANCH  15  20
ATOM     20  O7  UNK A          48.756  14.875  -3.555  0.00  0.00    -0.358 OA
ATOM     21  H10 UNK A          47.977  15.013  -2.994  0.00  0.00     0.217 HD
ENDBRANCH  15  20
ENDBRANCH   5  12
BRANCH   6  22
ATOM     22  O2  UNK A          45.999  11.740  -8.206  0.00  0.00    -0.355 OA
ATOM     23  H6  UNK A          46.249  12.243  -8.998  0.00  0.00     0.218 HD
ENDBRANCH   6  22
BRANCH   8  24
ATOM     24  O3  UNK A          46.601   7.102 -10.554  0.00  0.00    -0.360 OA
ATOM     25  H7  UNK A          46.586   7.885 -11.124  0.00  0.00     0.217 HD
ENDBRANCH   8  24
BRANCH  10  26
ATOM     26  O5  UNK A          50.287   5.271  -8.187  0.00  0.00    -0.361 OA
ATOM     27  H8  UNK A          51.136   5.501  -8.604  0.00  0.00     0.217 HD
ENDBRANCH  10  26
TORSDOF 6
ENDMDL
MODEL 16
REMARK VINA RESULT:      -5.8     10.504     11.917
REMARK  6 active torsions:
REMARK  status: ('A' for Active; 'I' for Inactive)
REMARK    1  A    between atoms: O2_2  and  C5_12 
REMARK    2  A    between atoms: O3_3  and  C7_14 
REMARK    3  A    between atoms: O5_5  and  C9_16 
REMARK    4  A    between atoms: O6_6  and  C13_20 
REMARK    5  A    between atoms: O7_7  and  C15_22 
REMARK    6  A    between atoms: C3_10  and  C4_11 
ROOT
ATOM      1  O1  UNK A          47.699  11.160  -6.098  0.00  0.00    -0.306 OA
ATOM      2  O4  UNK A          51.260  11.199  -8.079  0.00  0.00    -0.284 OA
ATOM      3  C1  UNK A          50.117  11.356  -6.023  0.00  0.00     0.084 A 
ATOM      4  C2  UNK A          48.868  11.334  -5.405  0.00  0.00     0.096 A 
ATOM      5  C3  UNK A          47.764  10.984  -7.472  0.00  0.00     0.123 A 
ATOM      6  C5  UNK A          48.903  10.993  -8.189  0.00  0.00     0.152 A 
ATOM      7  C6  UNK A          50.192  11.183  -7.481  0.00  0.00     0.223 A 
ATOM      8  C7  UNK A          51.275  11.539  -5.264  0.00  0.00     0.085 A 
ATOM      9  C8  UNK A          48.770  11.498  -4.022  0.00  0.00     0.075 A 
ATOM     10  C9  UNK A          49.925  11.681  -3.261  0.00  0.00     0.071 A 
ATOM     11  C11 UNK A          51.175  11.701  -3.882  0.00  0.00     0.074 A 
ENDROOT
BRANCH   5  12
ATOM     12  C4  UNK A          46.439  10.807  -8.093  0.00  0.00     0.004 A 
ATOM     13  C10 UNK A          46.014   9.537  -8.482  0.00  0.00     0.053 A 
ATOM     14  C13 UNK A          44.760   9.369  -9.068  0.00  0.00     0.099 A 
ATOM     15  C15 UNK A          43.931  10.474  -9.267  0.00  0.00     0.098 A 
ATOM     16  C14 UNK A          44.356  11.744  -8.879  0.00  0.00     0.040 A 
ATOM     17  C12 UNK A          45.610  11.911  -8.292  0.00  0.00     0.017 A 
BRANCH  14  18
ATOM     18  O6  UNK A          44.356   8.125  -9.445  0.00  0.00    -0.358 OA
ATOM     19  H9  UNK A          44.996   7.464  -9.133  0.00  0.00     0.217 HD
ENDBRANCH  14  18
BRANCH  15  20
ATOM     20  O7  UNK A          42.703  10.323  -9.838  0.00  0.00    -0.358 OA
ATOM     21  H10 UNK A          42.111  11.029  -9.534  0.00  0.00     0.217 HD
ENDBRANCH  15  20
ENDBRANCH   5  12
BRANCH   6  22
ATOM     22  O2  UNK A          48.931  10.848  -9.559  0.00  0.00    -0.355 OA
ATOM     23  H6  UNK A          48.072  11.099  -9.935  0.00  0.00     0.218 HD
ENDBRANCH   6  22
BRANCH   8  24
ATOM     24  O3  UNK A          52.520  11.568  -5.818  0.00  0.00    -0.360 OA
ATOM     25  H7  UNK A          52.486  11.288  -6.746  0.00  0.00     0.217 HD
ENDBRANCH   8  24
BRANCH  10  26
ATOM     26  O5  UNK A          49.832  11.840  -1.914  0.00  0.00    -0.361 OA
ATOM     27  H8  UNK A          50.515  12.468  -1.622  0.00  0.00     0.217 HD
ENDBRANCH  10  26
TORSDOF 6
ENDMDL
MODEL 17
REMARK VINA RESULT:      -5.7     10.296     12.842
REMARK  6 active torsions:
REMARK  status: ('A' for Active; 'I' for Inactive)
REMARK    1  A    between atoms: O2_2  and  C5_12 
REMARK    2  A    between atoms: O3_3  and  C7_14 
REMARK    3  A    between atoms: O5_5  and  C9_16 
REMARK    4  A    between atoms: O6_6  and  C13_20 
REMARK    5  A    between atoms: O7_7  and  C15_22 
REMARK    6  A    between atoms: C3_10  and  C4_11 
ROOT
ATOM      1  O1  UNK A          50.112   9.442  -6.707  0.00  0.00    -0.306 OA
ATOM      2  O4  UNK A          47.171   8.053  -9.162  0.00  0.00    -0.284 OA
ATOM      3  C1  UNK A          49.343   7.770  -8.289  0.00  0.00     0.084 A 
ATOM      4  C2  UNK A          50.308   8.297  -7.433  0.00  0.00     0.096 A 
ATOM      5  C3  UNK A          48.895  10.097  -6.820  0.00  0.00     0.123 A 
ATOM      6  C5  UNK A          47.885   9.698  -7.614  0.00  0.00     0.152 A 
ATOM      7  C6  UNK A          48.054   8.466  -8.423  0.00  0.00     0.223 A 
ATOM      8  C7  UNK A          49.599   6.598  -9.005  0.00  0.00     0.085 A 
ATOM      9  C8  UNK A          51.539   7.655  -7.291  0.00  0.00     0.075 A 
ATOM     10  C9  UNK A          51.799   6.485  -8.005  0.00  0.00     0.071 A 
ATOM     11  C11 UNK A          50.830   5.958  -8.860  0.00  0.00     0.074 A 
ENDROOT
BRANCH   5  12
ATOM     12  C4  UNK A          48.816  11.311  -5.988  0.00  0.00     0.004 A 
ATOM     13  C10 UNK A          49.396  12.500  -6.430  0.00  0.00     0.053 A 
ATOM     14  C13 UNK A          49.319  13.649  -5.644  0.00  0.00     0.099 A 
ATOM     15  C15 UNK A          48.664  13.608  -4.412  0.00  0.00     0.098 A 
ATOM     16  C14 UNK A          48.085  12.420  -3.970  0.00  0.00     0.040 A 
ATOM     17  C12 UNK A          48.160  11.271  -4.757  0.00  0.00     0.017 A 
BRANCH  14  18
ATOM     18  O6  UNK A          49.890  14.803  -6.085  0.00  0.00    -0.358 OA
ATOM     19  H9  UNK A          49.204  15.397  -6.432  0.00  0.00     0.217 HD
ENDBRANCH  14  18
BRANCH  15  20
ATOM     20  O7  UNK A          48.582  14.724  -3.636  0.00  0.00    -0.358 OA
ATOM     21  H10 UNK A          49.189  15.403  -3.972  0.00  0.00     0.217 HD
ENDBRANCH  15  20
ENDBRANCH   5  12
BRANCH   6  22
ATOM     22  O2  UNK A          46.699  10.390  -7.728  0.00  0.00    -0.355 OA
ATOM     23  H6  UNK A          46.840  11.205  -8.237  0.00  0.00     0.218 HD
ENDBRANCH   6  22
BRANCH   8  24
ATOM     24  O3  UNK A          48.690   6.042  -9.854  0.00  0.00    -0.360 OA
ATOM     25  H7  UNK A          48.537   5.112  -9.627  0.00  0.00     0.217 HD
ENDBRANCH   8  24
BRANCH  10  26
ATOM     26  O5  UNK A          52.998   5.858  -7.867  0.00  0.00    -0.361 OA
ATOM     27  H8  UNK A          52.885   4.912  -8.064  0.00  0.00     0.217 HD
ENDBRANCH  10  26
TORSDOF 6
ENDMDL
