MODEL 1
REMARK VINA RESULT:      -6.3      0.000      0.000
REMARK  6 active torsions:
REMARK  status: ('A' for Active; 'I' for Inactive)
REMARK    1  A    between atoms: O2_2  and  C5_12 
REMARK    2  A    between atoms: O3_3  and  C7_14 
REMARK    3  A    between atoms: O5_5  and  C9_16 
REMARK    4  A    between atoms: O6_6  and  C13_20 
REMARK    5  A    between atoms: O7_7  and  C15_22 
REMARK    6  A    between atoms: C3_10  and  C4_11 
ROOT
ATOM      1  O1  UNK A          43.233   2.005   7.862  0.00  0.00    -0.306 OA
ATOM      2  O4  UNK A          43.782   5.226  10.298  0.00  0.00    -0.284 OA
ATOM      3  C1  UNK A          44.730   3.669   8.802  0.00  0.00     0.084 A 
ATOM      4  C2  UNK A          44.477   2.567   7.987  0.00  0.00     0.096 A 
ATOM      5  C3  UNK A          42.179   2.566   8.566  0.00  0.00     0.123 A 
ATOM      6  C5  UNK A          42.291   3.623   9.392  0.00  0.00     0.152 A 
ATOM      7  C6  UNK A          43.619   4.261   9.562  0.00  0.00     0.223 A 
ATOM      8  C7  UNK A          46.019   4.198   8.891  0.00  0.00     0.085 A 
ATOM      9  C8  UNK A          45.515   1.986   7.257  0.00  0.00     0.075 A 
ATOM     10  C9  UNK A          46.804   2.512   7.343  0.00  0.00     0.071 A 
ATOM     11  C11 UNK A          47.055   3.616   8.159  0.00  0.00     0.074 A 
ENDROOT
BRANCH   5  12
ATOM     12  C4  UNK A          40.901   1.868   8.343  0.00  0.00     0.004 A 
ATOM     13  C10 UNK A          40.147   2.141   7.201  0.00  0.00     0.053 A 
ATOM     14  C13 UNK A          38.938   1.479   6.989  0.00  0.00     0.099 A 
ATOM     15  C15 UNK A          38.481   0.545   7.920  0.00  0.00     0.098 A 
ATOM     16  C14 UNK A          39.235   0.273   9.062  0.00  0.00     0.040 A 
ATOM     17  C12 UNK A          40.445   0.934   9.273  0.00  0.00     0.017 A 
BRANCH  14  18
ATOM     18  O6  UNK A          38.210   1.754   5.872  0.00  0.00    -0.358 OA
ATOM     19  H9  UNK A          37.362   1.281   5.907  0.00  0.00     0.217 HD
ENDBRANCH  14  18
BRANCH  15  20
ATOM     20  O7  UNK A          37.302  -0.108   7.723  0.00  0.00    -0.358 OA
ATOM     21  H10 UNK A          37.336  -0.980   8.149  0.00  0.00     0.217 HD
ENDBRANCH  15  20
ENDBRANCH   5  12
BRANCH   6  22
ATOM     22  O2  UNK A          41.229   4.137  10.104  0.00  0.00    -0.355 OA
ATOM     23  H6  UNK A          41.232   5.107  10.048  0.00  0.00     0.218 HD
ENDBRANCH   6  22
BRANCH   8  24
ATOM     24  O3  UNK A          46.320   5.274   9.672  0.00  0.00    -0.360 OA
ATOM     25  H7  UNK A          46.102   6.099   9.213  0.00  0.00     0.217 HD
ENDBRANCH   8  24
BRANCH  10  26
ATOM     26  O5  UNK A          47.817   1.948   6.632  0.00  0.00    -0.361 OA
ATOM     27  H8  UNK A          47.792   2.288   5.721  0.00  0.00     0.217 HD
ENDBRANCH  10  26
TORSDOF 6
ENDMDL
MODEL 2
REMARK VINA RESULT:      -6.1      1.212      3.020
REMARK  6 active torsions:
REMARK  status: ('A' for Active; 'I' for Inactive)
REMARK    1  A    between atoms: O2_2  and  C5_12 
REMARK    2  A    between atoms: O3_3  and  C7_14 
REMARK    3  A    between atoms: O5_5  and  C9_16 
REMARK    4  A    between atoms: O6_6  and  C13_20 
REMARK    5  A    between atoms: O7_7  and  C15_22 
REMARK    6  A    between atoms: C3_10  and  C4_11 
ROOT
ATOM      1  O1  UNK A          42.448   3.330   9.025  0.00  0.00    -0.306 OA
ATOM      2  O4  UNK A          46.035   2.280   7.400  0.00  0.00    -0.284 OA
ATOM      3  C1  UNK A          44.823   3.763   8.777  0.00  0.00     0.084 A 
ATOM      4  C2  UNK A          43.569   4.070   9.300  0.00  0.00     0.096 A 
ATOM      5  C3  UNK A          42.572   2.222   8.202  0.00  0.00     0.123 A 
ATOM      6  C5  UNK A          43.722   1.823   7.628  0.00  0.00     0.152 A 
ATOM      7  C6  UNK A          44.959   2.596   7.892  0.00  0.00     0.223 A 
ATOM      8  C7  UNK A          45.931   4.554   9.091  0.00  0.00     0.085 A 
ATOM      9  C8  UNK A          43.414   5.173  10.139  0.00  0.00     0.075 A 
ATOM     10  C9  UNK A          44.517   5.966  10.456  0.00  0.00     0.071 A 
ATOM     11  C11 UNK A          45.773   5.656   9.932  0.00  0.00     0.074 A 
ENDROOT
BRANCH   5  12
ATOM     12  C4  UNK A          41.295   1.517   7.989  0.00  0.00     0.004 A 
ATOM     13  C10 UNK A          40.357   2.028   7.092  0.00  0.00     0.053 A 
ATOM     14  C13 UNK A          39.149   1.361   6.890  0.00  0.00     0.099 A 
ATOM     15  C15 UNK A          38.879   0.182   7.587  0.00  0.00     0.098 A 
ATOM     16  C14 UNK A          39.817  -0.329   8.484  0.00  0.00     0.040 A 
ATOM     17  C12 UNK A          41.025   0.338   8.685  0.00  0.00     0.017 A 
BRANCH  14  18
ATOM     18  O6  UNK A          38.240   1.869   6.013  0.00  0.00    -0.358 OA
ATOM     19  H9  UNK A          38.100   2.813   6.196  0.00  0.00     0.217 HD
ENDBRANCH  14  18
BRANCH  15  20
ATOM     20  O7  UNK A          37.703  -0.480   7.397  0.00  0.00    -0.358 OA
ATOM     21  H10 UNK A          37.882  -1.402   7.155  0.00  0.00     0.217 HD
ENDBRANCH  15  20
ENDBRANCH   5  12
BRANCH   6  22
ATOM     22  O2  UNK A          43.805   0.734   6.787  0.00  0.00    -0.355 OA
ATOM     23  H6  UNK A          43.048   0.144   6.935  0.00  0.00     0.218 HD
ENDBRANCH   6  22
BRANCH   8  24
ATOM     24  O3  UNK A          47.178   4.298   8.607  0.00  0.00    -0.360 OA
ATOM     25  H7  UNK A          47.273   4.648   7.708  0.00  0.00     0.217 HD
ENDBRANCH   8  24
BRANCH  10  26
ATOM     26  O5  UNK A          44.368   7.042  11.274  0.00  0.00    -0.361 OA
ATOM     27  H8  UNK A          44.507   6.760  12.195  0.00  0.00     0.217 HD
ENDBRANCH  10  26
TORSDOF 6
ENDMDL
MODEL 3
REMARK VINA RESULT:      -6.1      3.087      5.170
REMARK  6 active torsions:
REMARK  status: ('A' for Active; 'I' for Inactive)
REMARK    1  A    between atoms: O2_2  and  C5_12 
REMARK    2  A    between atoms: O3_3  and  C7_14 
REMARK    3  A    between atoms: O5_5  and  C9_16 
REMARK    4  A    between atoms: O6_6  and  C13_20 
REMARK    5  A    between atoms: O7_7  and  C15_22 
REMARK    6  A    between atoms: C3_10  and  C4_11 
ROOT
ATOM      1  O1  UNK A          39.786   0.225   8.811  0.00  0.00    -0.306 OA
ATOM      2  O4  UNK A          43.622  -0.693   9.835  0.00  0.00    -0.284 OA
ATOM      3  C1  UNK A          41.960   0.963   9.597  0.00  0.00     0.084 A 
ATOM      4  C2  UNK A          40.638   1.212   9.232  0.00  0.00     0.096 A 
ATOM      5  C3  UNK A          40.255  -1.078   8.759  0.00  0.00     0.123 A 
ATOM      6  C5  UNK A          41.509  -1.450   9.076  0.00  0.00     0.152 A 
ATOM      7  C6  UNK A          42.469  -0.415   9.532  0.00  0.00     0.223 A 
ATOM      8  C7  UNK A          42.784   2.010  10.017  0.00  0.00     0.085 A 
ATOM      9  C8  UNK A          40.133   2.512   9.283  0.00  0.00     0.075 A 
ATOM     10  C9  UNK A          40.953   3.560   9.702  0.00  0.00     0.071 A 
ATOM     11  C11 UNK A          42.276   3.308  10.068  0.00  0.00     0.074 A 
ENDROOT
BRANCH   5  12
ATOM     12  C4  UNK A          39.240  -2.037   8.292  0.00  0.00     0.004 A 
ATOM     13  C10 UNK A          39.398  -2.680   7.064  0.00  0.00     0.053 A 
ATOM     14  C13 UNK A          38.437  -3.589   6.623  0.00  0.00     0.099 A 
ATOM     15  C15 UNK A          37.316  -3.855   7.409  0.00  0.00     0.098 A 
ATOM     16  C14 UNK A          37.156  -3.212   8.637  0.00  0.00     0.040 A 
ATOM     17  C12 UNK A          38.118  -2.304   9.079  0.00  0.00     0.017 A 
BRANCH  14  18
ATOM     18  O6  UNK A          38.602  -4.210   5.422  0.00  0.00    -0.358 OA
ATOM     19  H9  UNK A          38.197  -5.092   5.450  0.00  0.00     0.217 HD
ENDBRANCH  14  18
BRANCH  15  20
ATOM     20  O7  UNK A          36.371  -4.742   6.989  0.00  0.00    -0.358 OA
ATOM     21  H10 UNK A          35.597  -4.262   6.654  0.00  0.00     0.217 HD
ENDBRANCH  15  20
ENDBRANCH   5  12
BRANCH   6  22
ATOM     22  O2  UNK A          41.955  -2.750   8.982  0.00  0.00    -0.355 OA
ATOM     23  H6  UNK A          42.492  -2.972   9.760  0.00  0.00     0.218 HD
ENDBRANCH   6  22
BRANCH   8  24
ATOM     24  O3  UNK A          44.083   1.821  10.385  0.00  0.00    -0.360 OA
ATOM     25  H7  UNK A          44.682   2.188   9.718  0.00  0.00     0.217 HD
ENDBRANCH   8  24
BRANCH  10  26
ATOM     26  O5  UNK A          40.462   4.827   9.754  0.00  0.00    -0.361 OA
ATOM     27  H8  UNK A          41.188   5.454   9.590  0.00  0.00     0.217 HD
ENDBRANCH  10  26
TORSDOF 6
ENDMDL
MODEL 4
REMARK VINA RESULT:      -5.9      3.379      4.203
REMARK  6 active torsions:
REMARK  status: ('A' for Active; 'I' for Inactive)
REMARK    1  A    between atoms: O2_2  and  C5_12 
REMARK    2  A    between atoms: O3_3  and  C7_14 
REMARK    3  A    between atoms: O5_5  and  C9_16 
REMARK    4  A    between atoms: O6_6  and  C13_20 
REMARK    5  A    between atoms: O7_7  and  C15_22 
REMARK    6  A    between atoms: C3_10  and  C4_11 
ROOT
ATOM      1  O1  UNK A          45.217   0.174   9.929  0.00  0.00    -0.306 OA
ATOM      2  O4  UNK A          44.367   2.222   6.510  0.00  0.00    -0.284 OA
ATOM      3  C1  UNK A          45.989   1.548   8.083  0.00  0.00     0.084 A 
ATOM      4  C2  UNK A          46.214   0.831   9.256  0.00  0.00     0.096 A 
ATOM      5  C3  UNK A          43.932   0.213   9.410  0.00  0.00     0.123 A 
ATOM      6  C5  UNK A          43.581   0.874   8.292  0.00  0.00     0.152 A 
ATOM      7  C6  UNK A          44.626   1.604   7.534  0.00  0.00     0.223 A 
ATOM      8  C7  UNK A          47.045   2.200   7.441  0.00  0.00     0.085 A 
ATOM      9  C8  UNK A          47.499   0.765   9.798  0.00  0.00     0.075 A 
ATOM     10  C9  UNK A          48.556   1.414   9.160  0.00  0.00     0.071 A 
ATOM     11  C11 UNK A          48.328   2.131   7.984  0.00  0.00     0.074 A 
ENDROOT
BRANCH   5  12
ATOM     12  C4  UNK A          42.959  -0.533  10.227  0.00  0.00     0.004 A 
ATOM     13  C10 UNK A          42.581  -1.824   9.858  0.00  0.00     0.053 A 
ATOM     14  C13 UNK A          41.661  -2.530  10.632  0.00  0.00     0.099 A 
ATOM     15  C15 UNK A          41.117  -1.944  11.776  0.00  0.00     0.098 A 
ATOM     16  C14 UNK A          41.495  -0.654  12.146  0.00  0.00     0.040 A 
ATOM     17  C12 UNK A          42.416   0.052  11.372  0.00  0.00     0.017 A 
BRANCH  14  18
ATOM     18  O6  UNK A          41.298  -3.789  10.261  0.00  0.00    -0.358 OA
ATOM     19  H9  UNK A          41.975  -4.168   9.678  0.00  0.00     0.217 HD
ENDBRANCH  14  18
BRANCH  15  20
ATOM     20  O7  UNK A          40.219  -2.625  12.542  0.00  0.00    -0.358 OA
ATOM     21  H10 UNK A          40.264  -2.310  13.458  0.00  0.00     0.217 HD
ENDBRANCH  15  20
ENDBRANCH   5  12
BRANCH   6  22
ATOM     22  O2  UNK A          42.287   0.921   7.821  0.00  0.00    -0.355 OA
ATOM     23  H6  UNK A          42.277   1.282   6.919  0.00  0.00     0.218 HD
ENDBRANCH   6  22
BRANCH   8  24
ATOM     24  O3  UNK A          46.879   2.913   6.292  0.00  0.00    -0.360 OA
ATOM     25  H7  UNK A          47.405   2.530   5.574  0.00  0.00     0.217 HD
ENDBRANCH   8  24
BRANCH  10  26
ATOM     26  O5  UNK A          49.809   1.350   9.685  0.00  0.00    -0.361 OA
ATOM     27  H8  UNK A          49.811   0.714  10.421  0.00  0.00     0.217 HD
ENDBRANCH  10  26
TORSDOF 6
ENDMDL
MODEL 5
REMARK VINA RESULT:      -5.9      2.168      2.544
REMARK  6 active torsions:
REMARK  status: ('A' for Active; 'I' for Inactive)
REMARK    1  A    between atoms: O2_2  and  C5_12 
REMARK    2  A    between atoms: O3_3  and  C7_14 
REMARK    3  A    between atoms: O5_5  and  C9_16 
REMARK    4  A    between atoms: O6_6  and  C13_20 
REMARK    5  A    between atoms: O7_7  and  C15_22 
REMARK    6  A    between atoms: C3_10  and  C4_11 
ROOT
ATOM      1  O1  UNK A          44.043   1.513   7.628  0.00  0.00    -0.306 OA
ATOM      2  O4  UNK A          45.406   1.012  11.435  0.00  0.00    -0.284 OA
ATOM      3  C1  UNK A          45.906   1.497   9.182  0.00  0.00     0.084 A 
ATOM      4  C2  UNK A          45.378   1.654   7.902  0.00  0.00     0.096 A 
ATOM      5  C3  UNK A          43.180   1.214   8.671  0.00  0.00     0.123 A 
ATOM      6  C5  UNK A          43.563   1.030   9.948  0.00  0.00     0.152 A 
ATOM      7  C6  UNK A          44.998   1.167  10.291  0.00  0.00     0.223 A 
ATOM      8  C7  UNK A          47.277   1.652   9.402  0.00  0.00     0.085 A 
ATOM      9  C8  UNK A          46.219   1.965   6.833  0.00  0.00     0.075 A 
ATOM     10  C9  UNK A          47.588   2.120   7.049  0.00  0.00     0.071 A 
ATOM     11  C11 UNK A          48.116   1.963   8.332  0.00  0.00     0.074 A 
ENDROOT
BRANCH   5  12
ATOM     12  C4  UNK A          41.776   1.091   8.240  0.00  0.00     0.004 A 
ATOM     13  C10 UNK A          41.151  -0.156   8.244  0.00  0.00     0.053 A 
ATOM     14  C13 UNK A          39.822  -0.272   7.837  0.00  0.00     0.099 A 
ATOM     15  C15 UNK A          39.119   0.860   7.423  0.00  0.00     0.098 A 
ATOM     16  C14 UNK A          39.743   2.107   7.418  0.00  0.00     0.040 A 
ATOM     17  C12 UNK A          41.072   2.223   7.826  0.00  0.00     0.017 A 
BRANCH  14  18
ATOM     18  O6  UNK A          39.223  -1.494   7.845  0.00  0.00    -0.358 OA
ATOM     19  H9  UNK A          39.032  -1.772   6.934  0.00  0.00     0.217 HD
ENDBRANCH  14  18
BRANCH  15  20
ATOM     20  O7  UNK A          37.819   0.759   7.025  0.00  0.00    -0.358 OA
ATOM     21  H10 UNK A          37.430   1.645   6.952  0.00  0.00     0.217 HD
ENDBRANCH  15  20
ENDBRANCH   5  12
BRANCH   6  22
ATOM     22  O2  UNK A          42.683   0.701  10.957  0.00  0.00    -0.355 OA
ATOM     23  H6  UNK A          43.102   0.073  11.568  0.00  0.00     0.218 HD
ENDBRANCH   6  22
BRANCH   8  24
ATOM     24  O3  UNK A          47.844   1.509  10.633  0.00  0.00    -0.360 OA
ATOM     25  H7  UNK A          48.006   0.574  10.827  0.00  0.00     0.217 HD
ENDBRANCH   8  24
BRANCH  10  26
ATOM     26  O5  UNK A          48.410   2.424   6.009  0.00  0.00    -0.361 OA
ATOM     27  H8  UNK A          48.482   1.648   5.426  0.00  0.00     0.217 HD
ENDBRANCH  10  26
TORSDOF 6
ENDMDL
MODEL 6
REMARK VINA RESULT:      -5.8      7.431     10.871
REMARK  6 active torsions:
REMARK  status: ('A' for Active; 'I' for Inactive)
REMARK    1  A    between atoms: O2_2  and  C5_12 
REMARK    2  A    between atoms: O3_3  and  C7_14 
REMARK    3  A    between atoms: O5_5  and  C9_16 
REMARK    4  A    between atoms: O6_6  and  C13_20 
REMARK    5  A    between atoms: O7_7  and  C15_22 
REMARK    6  A    between atoms: C3_10  and  C4_11 
ROOT
ATOM      1  O1  UNK A          37.929  -5.023   5.598  0.00  0.00    -0.306 OA
ATOM      2  O4  UNK A          37.372  -6.137   9.478  0.00  0.00    -0.284 OA
ATOM      3  C1  UNK A          37.901  -4.422   7.949  0.00  0.00     0.084 A 
ATOM      4  C2  UNK A          38.079  -4.104   6.604  0.00  0.00     0.096 A 
ATOM      5  C3  UNK A          37.572  -6.320   5.934  0.00  0.00     0.123 A 
ATOM      6  C5  UNK A          37.379  -6.756   7.192  0.00  0.00     0.152 A 
ATOM      7  C6  UNK A          37.536  -5.799   8.313  0.00  0.00     0.223 A 
ATOM      8  C7  UNK A          38.069  -3.443   8.932  0.00  0.00     0.085 A 
ATOM      9  C8  UNK A          38.428  -2.805   6.234  0.00  0.00     0.075 A 
ATOM     10  C9  UNK A          38.596  -1.825   7.212  0.00  0.00     0.071 A 
ATOM     11  C11 UNK A          38.417  -2.145   8.559  0.00  0.00     0.074 A 
ENDROOT
BRANCH   5  12
ATOM     12  C4  UNK A          37.444  -7.203   4.761  0.00  0.00     0.004 A 
ATOM     13  C10 UNK A          38.488  -8.061   4.415  0.00  0.00     0.053 A 
ATOM     14  C13 UNK A          38.366  -8.898   3.307  0.00  0.00     0.099 A 
ATOM     15  C15 UNK A          37.199  -8.875   2.541  0.00  0.00     0.098 A 
ATOM     16  C14 UNK A          36.155  -8.017   2.886  0.00  0.00     0.040 A 
ATOM     17  C12 UNK A          36.277  -7.181   3.996  0.00  0.00     0.017 A 
BRANCH  14  18
ATOM     18  O6  UNK A          39.392  -9.730   2.978  0.00  0.00    -0.358 OA
ATOM     19  H9  UNK A          39.268 -10.063   2.074  0.00  0.00     0.217 HD
ENDBRANCH  14  18
BRANCH  15  20
ATOM     20  O7  UNK A          37.067  -9.688   1.456  0.00  0.00    -0.358 OA
ATOM     21  H10 UNK A          37.802 -10.322   1.430  0.00  0.00     0.217 HD
ENDBRANCH  15  20
ENDBRANCH   5  12
BRANCH   6  22
ATOM     22  O2  UNK A          37.057  -8.062   7.494  0.00  0.00    -0.355 OA
ATOM     23  H6  UNK A          37.851  -8.619   7.438  0.00  0.00     0.218 HD
ENDBRANCH   6  22
BRANCH   8  24
ATOM     24  O3  UNK A          37.908  -3.701  10.261  0.00  0.00    -0.360 OA
ATOM     25  H7  UNK A          37.266  -3.088  10.650  0.00  0.00     0.217 HD
ENDBRANCH   8  24
BRANCH  10  26
ATOM     26  O5  UNK A          38.936  -0.558   6.854  0.00  0.00    -0.361 OA
ATOM     27  H8  UNK A          39.891  -0.526   6.671  0.00  0.00     0.217 HD
ENDBRANCH  10  26
TORSDOF 6
ENDMDL
MODEL 7
REMARK VINA RESULT:      -5.8      2.340      7.121
REMARK  6 active torsions:
REMARK  status: ('A' for Active; 'I' for Inactive)
REMARK    1  A    between atoms: O2_2  and  C5_12 
REMARK    2  A    between atoms: O3_3  and  C7_14 
REMARK    3  A    between atoms: O5_5  and  C9_16 
REMARK    4  A    between atoms: O6_6  and  C13_20 
REMARK    5  A    between atoms: O7_7  and  C15_22 
REMARK    6  A    between atoms: C3_10  and  C4_11 
ROOT
ATOM      1  O1  UNK A          43.875  -0.122   9.200  0.00  0.00    -0.306 OA
ATOM      2  O4  UNK A          40.940   2.032   7.368  0.00  0.00    -0.284 OA
ATOM      3  C1  UNK A          41.524   0.150   8.665  0.00  0.00     0.084 A 
ATOM      4  C2  UNK A          42.573  -0.542   9.268  0.00  0.00     0.096 A 
ATOM      5  C3  UNK A          44.159   1.048   8.513  0.00  0.00     0.123 A 
ATOM      6  C5  UNK A          43.242   1.803   7.881  0.00  0.00     0.152 A 
ATOM      7  C6  UNK A          41.820   1.385   7.923  0.00  0.00     0.223 A 
ATOM      8  C7  UNK A          40.215  -0.327   8.766  0.00  0.00     0.085 A 
ATOM      9  C8  UNK A          42.318  -1.717   9.975  0.00  0.00     0.075 A 
ATOM     10  C9  UNK A          41.012  -2.196  10.079  0.00  0.00     0.071 A 
ATOM     11  C11 UNK A          39.962  -1.501   9.475  0.00  0.00     0.074 A 
ENDROOT
BRANCH   5  12
ATOM     12  C4  UNK A          45.594   1.384   8.518  0.00  0.00     0.004 A 
ATOM     13  C10 UNK A          46.248   1.672   7.319  0.00  0.00     0.053 A 
ATOM     14  C13 UNK A          47.605   1.992   7.324  0.00  0.00     0.099 A 
ATOM     15  C15 UNK A          48.310   2.022   8.528  0.00  0.00     0.098 A 
ATOM     16  C14 UNK A          47.657   1.734   9.726  0.00  0.00     0.040 A 
ATOM     17  C12 UNK A          46.299   1.415   9.721  0.00  0.00     0.017 A 
BRANCH  14  18
ATOM     18  O6  UNK A          48.233   2.270   6.149  0.00  0.00    -0.358 OA
ATOM     19  H9  UNK A          47.642   2.069   5.405  0.00  0.00     0.217 HD
ENDBRANCH  14  18
BRANCH  15  20
ATOM     20  O7  UNK A          49.636   2.334   8.546  0.00  0.00    -0.358 OA
ATOM     21  H10 UNK A          49.746   3.287   8.689  0.00  0.00     0.217 HD
ENDBRANCH  15  20
ENDBRANCH   5  12
BRANCH   6  22
ATOM     22  O2  UNK A          43.561   2.944   7.178  0.00  0.00    -0.355 OA
ATOM     23  H6  UNK A          44.446   2.855   6.788  0.00  0.00     0.218 HD
ENDBRANCH   6  22
BRANCH   8  24
ATOM     24  O3  UNK A          39.154   0.311   8.196  0.00  0.00    -0.360 OA
ATOM     25  H7  UNK A          38.356  -0.235   8.255  0.00  0.00     0.217 HD
ENDBRANCH   8  24
BRANCH  10  26
ATOM     26  O5  UNK A          40.761  -3.341  10.768  0.00  0.00    -0.361 OA
ATOM     27  H8  UNK A          40.594  -3.119  11.701  0.00  0.00     0.217 HD
ENDBRANCH  10  26
TORSDOF 6
ENDMDL
MODEL 8
REMARK VINA RESULT:      -5.8      1.776      7.065
REMARK  6 active torsions:
REMARK  status: ('A' for Active; 'I' for Inactive)
REMARK    1  A    between atoms: O2_2  and  C5_12 
REMARK    2  A    between atoms: O3_3  and  C7_14 
REMARK    3  A    between atoms: O5_5  and  C9_16 
REMARK    4  A    between atoms: O6_6  and  C13_20 
REMARK    5  A    between atoms: O7_7  and  C15_22 
REMARK    6  A    between atoms: C3_10  and  C4_11 
ROOT
ATOM      1  O1  UNK A          42.800   2.099   7.722  0.00  0.00    -0.306 OA
ATOM      2  O4  UNK A          42.262  -1.354   9.819  0.00  0.00    -0.284 OA
ATOM      3  C1  UNK A          41.328   0.302   8.424  0.00  0.00     0.084 A 
ATOM      4  C2  UNK A          41.576   1.484   7.729  0.00  0.00     0.096 A 
ATOM      5  C3  UNK A          43.839   1.512   8.427  0.00  0.00     0.123 A 
ATOM      6  C5  UNK A          43.730   0.379   9.145  0.00  0.00     0.152 A 
ATOM      7  C6  UNK A          42.422  -0.319   9.185  0.00  0.00     0.223 A 
ATOM      8  C7  UNK A          40.058  -0.280   8.395  0.00  0.00     0.085 A 
ATOM      9  C8  UNK A          40.552   2.093   7.001  0.00  0.00     0.075 A 
ATOM     10  C9  UNK A          39.283   1.515   6.970  0.00  0.00     0.071 A 
ATOM     11  C11 UNK A          39.037   0.331   7.667  0.00  0.00     0.074 A 
ENDROOT
BRANCH   5  12
ATOM     12  C4  UNK A          45.098   2.273   8.337  0.00  0.00     0.004 A 
ATOM     13  C10 UNK A          45.980   2.042   7.281  0.00  0.00     0.053 A 
ATOM     14  C13 UNK A          47.170   2.764   7.196  0.00  0.00     0.099 A 
ATOM     15  C15 UNK A          47.480   3.716   8.167  0.00  0.00     0.098 A 
ATOM     16  C14 UNK A          46.598   3.947   9.223  0.00  0.00     0.040 A 
ATOM     17  C12 UNK A          45.407   3.226   9.308  0.00  0.00     0.017 A 
BRANCH  14  18
ATOM     18  O6  UNK A          48.024   2.528   6.161  0.00  0.00    -0.358 OA
ATOM     19  H9  UNK A          47.689   2.954   5.355  0.00  0.00     0.217 HD
ENDBRANCH  14  18
BRANCH  15  20
ATOM     20  O7  UNK A          48.639   4.428   8.093  0.00  0.00    -0.358 OA
ATOM     21  H10 UNK A          49.124   4.181   7.291  0.00  0.00     0.217 HD
ENDBRANCH  15  20
ENDBRANCH   5  12
BRANCH   6  22
ATOM     22  O2  UNK A          44.775  -0.162   9.862  0.00  0.00    -0.355 OA
ATOM     23  H6  UNK A          45.150   0.510  10.455  0.00  0.00     0.218 HD
ENDBRANCH   6  22
BRANCH   8  24
ATOM     24  O3  UNK A          39.763  -1.434   9.057  0.00  0.00    -0.360 OA
ATOM     25  H7  UNK A          39.795  -1.294  10.016  0.00  0.00     0.217 HD
ENDBRANCH   8  24
BRANCH  10  26
ATOM     26  O5  UNK A          38.285   2.108   6.261  0.00  0.00    -0.361 OA
ATOM     27  H8  UNK A          38.333   3.070   6.391  0.00  0.00     0.217 HD
ENDBRANCH  10  26
TORSDOF 6
ENDMDL
MODEL 9
REMARK VINA RESULT:      -5.7      5.914      9.354
REMARK  6 active torsions:
REMARK  status: ('A' for Active; 'I' for Inactive)
REMARK    1  A    between atoms: O2_2  and  C5_12 
REMARK    2  A    between atoms: O3_3  and  C7_14 
REMARK    3  A    between atoms: O5_5  and  C9_16 
REMARK    4  A    between atoms: O6_6  and  C13_20 
REMARK    5  A    between atoms: O7_7  and  C15_22 
REMARK    6  A    between atoms: C3_10  and  C4_11 
ROOT
ATOM      1  O1  UNK A          38.771  -3.936   6.471  0.00  0.00    -0.306 OA
ATOM      2  O4  UNK A          35.363  -1.839   7.243  0.00  0.00    -0.284 OA
ATOM      3  C1  UNK A          37.717  -1.938   7.357  0.00  0.00     0.084 A 
ATOM      4  C2  UNK A          38.844  -2.705   7.068  0.00  0.00     0.096 A 
ATOM      5  C3  UNK A          37.523  -4.434   6.128  0.00  0.00     0.123 A 
ATOM      6  C5  UNK A          36.359  -3.798   6.359  0.00  0.00     0.152 A 
ATOM      7  C6  UNK A          36.388  -2.465   7.008  0.00  0.00     0.223 A 
ATOM      8  C7  UNK A          37.852  -0.690   7.969  0.00  0.00     0.085 A 
ATOM      9  C8  UNK A          40.114  -2.228   7.391  0.00  0.00     0.075 A 
ATOM     10  C9  UNK A          40.253  -0.981   8.002  0.00  0.00     0.071 A 
ATOM     11  C11 UNK A          39.123  -0.214   8.290  0.00  0.00     0.074 A 
ENDROOT
BRANCH   5  12
ATOM     12  C4  UNK A          37.587  -5.762   5.494  0.00  0.00     0.004 A 
ATOM     13  C10 UNK A          37.973  -6.875   6.242  0.00  0.00     0.053 A 
ATOM     14  C13 UNK A          38.032  -8.132   5.642  0.00  0.00     0.099 A 
ATOM     15  C15 UNK A          37.707  -8.277   4.293  0.00  0.00     0.098 A 
ATOM     16  C14 UNK A          37.321  -7.165   3.545  0.00  0.00     0.040 A 
ATOM     17  C12 UNK A          37.261  -5.907   4.145  0.00  0.00     0.017 A 
BRANCH  14  18
ATOM     18  O6  UNK A          38.411  -9.211   6.382  0.00  0.00    -0.358 OA
ATOM     19  H9  UNK A          38.230 -10.028   5.888  0.00  0.00     0.217 HD
ENDBRANCH  14  18
BRANCH  15  20
ATOM     20  O7  UNK A          37.759  -9.501   3.696  0.00  0.00    -0.358 OA
ATOM     21  H10 UNK A          38.631  -9.901   3.845  0.00  0.00     0.217 HD
ENDBRANCH  15  20
ENDBRANCH   5  12
BRANCH   6  22
ATOM     22  O2  UNK A          35.132  -4.335   6.036  0.00  0.00    -0.355 OA
ATOM     23  H6  UNK A          34.439  -3.925   6.579  0.00  0.00     0.218 HD
ENDBRANCH   6  22
BRANCH   8  24
ATOM     24  O3  UNK A          36.783   0.099   8.273  0.00  0.00    -0.360 OA
ATOM     25  H7  UNK A          36.882   0.480   9.158  0.00  0.00     0.217 HD
ENDBRANCH   8  24
BRANCH  10  26
ATOM     26  O5  UNK A          41.491  -0.514   8.318  0.00  0.00    -0.361 OA
ATOM     27  H8  UNK A          41.752  -0.870   9.185  0.00  0.00     0.217 HD
ENDBRANCH  10  26
TORSDOF 6
ENDMDL
MODEL 10
REMARK VINA RESULT:      -5.7      2.196      6.692
REMARK  6 active torsions:
REMARK  status: ('A' for Active; 'I' for Inactive)
REMARK    1  A    between atoms: O2_2  and  C5_12 
REMARK    2  A    between atoms: O3_3  and  C7_14 
REMARK    3  A    between atoms: O5_5  and  C9_16 
REMARK    4  A    between atoms: O6_6  and  C13_20 
REMARK    5  A    between atoms: O7_7  and  C15_22 
REMARK    6  A    between atoms: C3_10  and  C4_11 
ROOT
ATOM      1  O1  UNK A          41.487   3.052   8.734  0.00  0.00    -0.306 OA
ATOM      2  O4  UNK A          43.502  -0.379   9.618  0.00  0.00    -0.284 OA
ATOM      3  C1  UNK A          41.564   0.627   8.725  0.00  0.00     0.084 A 
ATOM      4  C2  UNK A          40.927   1.835   8.449  0.00  0.00     0.096 A 
ATOM      5  C3  UNK A          42.748   3.082   9.310  0.00  0.00     0.123 A 
ATOM      6  C5  UNK A          43.465   1.990   9.633  0.00  0.00     0.152 A 
ATOM      7  C6  UNK A          42.896   0.651   9.348  0.00  0.00     0.223 A 
ATOM      8  C7  UNK A          40.942  -0.585   8.414  0.00  0.00     0.085 A 
ATOM      9  C8  UNK A          39.661   1.838   7.861  0.00  0.00     0.075 A 
ATOM     10  C9  UNK A          39.038   0.630   7.549  0.00  0.00     0.071 A 
ATOM     11  C11 UNK A          39.678  -0.579   7.825  0.00  0.00     0.074 A 
ENDROOT
BRANCH   5  12
ATOM     12  C4  UNK A          43.233   4.450   9.563  0.00  0.00     0.004 A 
ATOM     13  C10 UNK A          42.556   5.277  10.460  0.00  0.00     0.053 A 
ATOM     14  C13 UNK A          43.016   6.571  10.700  0.00  0.00     0.099 A 
ATOM     15  C15 UNK A          44.153   7.040  10.041  0.00  0.00     0.098 A 
ATOM     16  C14 UNK A          44.830   6.215   9.145  0.00  0.00     0.040 A 
ATOM     17  C12 UNK A          44.371   4.920   8.905  0.00  0.00     0.017 A 
BRANCH  14  18
ATOM     18  O6  UNK A          42.346   7.369  11.577  0.00  0.00    -0.358 OA
ATOM     19  H9  UNK A          42.968   7.976  12.010  0.00  0.00     0.217 HD
ENDBRANCH  14  18
BRANCH  15  20
ATOM     20  O7  UNK A          44.613   8.303  10.269  0.00  0.00    -0.358 OA
ATOM     21  H10 UNK A          44.727   8.767   9.425  0.00  0.00     0.217 HD
ENDBRANCH  15  20
ENDBRANCH   5  12
BRANCH   6  22
ATOM     22  O2  UNK A          44.703   2.053  10.235  0.00  0.00    -0.355 OA
ATOM     23  H6  UNK A          45.294   1.388   9.845  0.00  0.00     0.218 HD
ENDBRANCH   6  22
BRANCH   8  24
ATOM     24  O3  UNK A          41.522  -1.793   8.662  0.00  0.00    -0.360 OA
ATOM     25  H7  UNK A          41.244  -2.446   8.002  0.00  0.00     0.217 HD
ENDBRANCH   8  24
BRANCH  10  26
ATOM     26  O5  UNK A          37.804   0.631   6.975  0.00  0.00    -0.361 OA
ATOM     27  H8  UNK A          37.248  -0.032   7.420  0.00  0.00     0.217 HD
ENDBRANCH  10  26
TORSDOF 6
ENDMDL
MODEL 11
REMARK VINA RESULT:      -5.7      3.376      5.145
REMARK  6 active torsions:
REMARK  status: ('A' for Active; 'I' for Inactive)
REMARK    1  A    between atoms: O2_2  and  C5_12 
REMARK    2  A    between atoms: O3_3  and  C7_14 
REMARK    3  A    between atoms: O5_5  and  C9_16 
REMARK    4  A    between atoms: O6_6  and  C13_20 
REMARK    5  A    between atoms: O7_7  and  C15_22 
REMARK    6  A    between atoms: C3_10  and  C4_11 
ROOT
ATOM      1  O1  UNK A          40.826  -1.426   8.577  0.00  0.00    -0.306 OA
ATOM      2  O4  UNK A          39.211   2.276   8.034  0.00  0.00    -0.284 OA
ATOM      3  C1  UNK A          41.063   0.985   8.717  0.00  0.00     0.084 A 
ATOM      4  C2  UNK A          41.557  -0.308   8.881  0.00  0.00     0.096 A 
ATOM      5  C3  UNK A          39.546  -1.264   8.072  0.00  0.00     0.123 A 
ATOM      6  C5  UNK A          38.950  -0.073   7.874  0.00  0.00     0.152 A 
ATOM      7  C6  UNK A          39.700   1.165   8.194  0.00  0.00     0.223 A 
ATOM      8  C7  UNK A          41.854   2.089   9.045  0.00  0.00     0.085 A 
ATOM      9  C8  UNK A          42.846  -0.504   9.377  0.00  0.00     0.075 A 
ATOM     10  C9  UNK A          43.639   0.595   9.706  0.00  0.00     0.071 A 
ATOM     11  C11 UNK A          43.143   1.889   9.540  0.00  0.00     0.074 A 
ENDROOT
BRANCH   5  12
ATOM     12  C4  UNK A          38.872  -2.543   7.787  0.00  0.00     0.004 A 
ATOM     13  C10 UNK A          38.913  -3.083   6.502  0.00  0.00     0.053 A 
ATOM     14  C13 UNK A          38.277  -4.294   6.233  0.00  0.00     0.099 A 
ATOM     15  C15 UNK A          37.597  -4.965   7.251  0.00  0.00     0.098 A 
ATOM     16  C14 UNK A          37.556  -4.426   8.536  0.00  0.00     0.040 A 
ATOM     17  C12 UNK A          38.193  -3.215   8.805  0.00  0.00     0.017 A 
BRANCH  14  18
ATOM     18  O6  UNK A          38.322  -4.811   4.974  0.00  0.00    -0.358 OA
ATOM     19  H9  UNK A          37.518  -4.563   4.488  0.00  0.00     0.217 HD
ENDBRANCH  14  18
BRANCH  15  20
ATOM     20  O7  UNK A          36.973  -6.150   7.001  0.00  0.00    -0.358 OA
ATOM     21  H10 UNK A          36.020  -6.002   6.893  0.00  0.00     0.217 HD
ENDBRANCH  15  20
ENDBRANCH   5  12
BRANCH   6  22
ATOM     22  O2  UNK A          37.661   0.054   7.401  0.00  0.00    -0.355 OA
ATOM     23  H6  UNK A          37.030  -0.042   8.133  0.00  0.00     0.218 HD
ENDBRANCH   6  22
BRANCH   8  24
ATOM     24  O3  UNK A          41.419   3.372   8.904  0.00  0.00    -0.360 OA
ATOM     25  H7  UNK A          42.080   3.995   9.244  0.00  0.00     0.217 HD
ENDBRANCH   8  24
BRANCH  10  26
ATOM     26  O5  UNK A          44.896   0.406  10.190  0.00  0.00    -0.361 OA
ATOM     27  H8  UNK A          44.843   0.213  11.142  0.00  0.00     0.217 HD
ENDBRANCH  10  26
TORSDOF 6
ENDMDL
MODEL 12
REMARK VINA RESULT:      -5.6      9.568     13.329
REMARK  6 active torsions:
REMARK  status: ('A' for Active; 'I' for Inactive)
REMARK    1  A    between atoms: O2_2  and  C5_12 
REMARK    2  A    between atoms: O3_3  and  C7_14 
REMARK    3  A    between atoms: O5_5  and  C9_16 
REMARK    4  A    between atoms: O6_6  and  C13_20 
REMARK    5  A    between atoms: O7_7  and  C15_22 
REMARK    6  A    between atoms: C3_10  and  C4_11 
ROOT
ATOM      1  O1  UNK A          37.954  -8.373   5.915  0.00  0.00    -0.306 OA
ATOM      2  O4  UNK A          37.320 -10.029   2.245  0.00  0.00    -0.284 OA
ATOM      3  C1  UNK A          38.160 -10.285   4.434  0.00  0.00     0.084 A 
ATOM      4  C2  UNK A          38.348  -9.661   5.666  0.00  0.00     0.096 A 
ATOM      5  C3  UNK A          37.327  -7.665   4.900  0.00  0.00     0.123 A 
ATOM      6  C5  UNK A          37.093  -8.147   3.666  0.00  0.00     0.152 A 
ATOM      7  C6  UNK A          37.508  -9.535   3.350  0.00  0.00     0.223 A 
ATOM      8  C7  UNK A          38.585 -11.601   4.238  0.00  0.00     0.085 A 
ATOM      9  C8  UNK A          38.967 -10.351   6.710  0.00  0.00     0.075 A 
ATOM     10  C9  UNK A          39.392 -11.665   6.518  0.00  0.00     0.071 A 
ATOM     11  C11 UNK A          39.201 -12.288   5.284  0.00  0.00     0.074 A 
ENDROOT
BRANCH   5  12
ATOM     12  C4  UNK A          36.955  -6.296   5.299  0.00  0.00     0.004 A 
ATOM     13  C10 UNK A          37.931  -5.303   5.383  0.00  0.00     0.053 A 
ATOM     14  C13 UNK A          37.577  -4.007   5.759  0.00  0.00     0.099 A 
ATOM     15  C15 UNK A          36.247  -3.705   6.054  0.00  0.00     0.098 A 
ATOM     16  C14 UNK A          35.271  -4.698   5.970  0.00  0.00     0.040 A 
ATOM     17  C12 UNK A          35.625  -5.993   5.592  0.00  0.00     0.017 A 
BRANCH  14  18
ATOM     18  O6  UNK A          38.539  -3.046   5.839  0.00  0.00    -0.358 OA
ATOM     19  H9  UNK A          39.388  -3.450   6.081  0.00  0.00     0.217 HD
ENDBRANCH  14  18
BRANCH  15  20
ATOM     20  O7  UNK A          35.890  -2.443   6.421  0.00  0.00    -0.358 OA
ATOM     21  H10 UNK A          36.391  -2.176   7.207  0.00  0.00     0.217 HD
ENDBRANCH  15  20
ENDBRANCH   5  12
BRANCH   6  22
ATOM     22  O2  UNK A          36.497  -7.406   2.669  0.00  0.00    -0.355 OA
ATOM     23  H6  UNK A          36.315  -6.507   2.989  0.00  0.00     0.218 HD
ENDBRANCH   6  22
BRANCH   8  24
ATOM     24  O3  UNK A          38.424 -12.257   3.054  0.00  0.00    -0.360 OA
ATOM     25  H7  UNK A          37.627 -11.945   2.598  0.00  0.00     0.217 HD
ENDBRANCH   8  24
BRANCH  10  26
ATOM     26  O5  UNK A          39.994 -12.340   7.534  0.00  0.00    -0.361 OA
ATOM     27  H8  UNK A          39.415 -12.318   8.315  0.00  0.00     0.217 HD
ENDBRANCH  10  26
TORSDOF 6
ENDMDL
MODEL 13
REMARK VINA RESULT:      -5.6      2.338      2.873
REMARK  6 active torsions:
REMARK  status: ('A' for Active; 'I' for Inactive)
REMARK    1  A    between atoms: O2_2  and  C5_12 
REMARK    2  A    between atoms: O3_3  and  C7_14 
REMARK    3  A    between atoms: O5_5  and  C9_16 
REMARK    4  A    between atoms: O6_6  and  C13_20 
REMARK    5  A    between atoms: O7_7  and  C15_22 
REMARK    6  A    between atoms: C3_10  and  C4_11 
ROOT
ATOM      1  O1  UNK A          44.384   0.876   8.189  0.00  0.00    -0.306 OA
ATOM      2  O4  UNK A          44.493   3.861  10.961  0.00  0.00    -0.284 OA
ATOM      3  C1  UNK A          45.483   2.851   9.074  0.00  0.00     0.084 A 
ATOM      4  C2  UNK A          45.390   1.807   8.156  0.00  0.00     0.096 A 
ATOM      5  C3  UNK A          43.411   0.988   9.169  0.00  0.00     0.123 A 
ATOM      6  C5  UNK A          43.390   1.942  10.118  0.00  0.00     0.152 A 
ATOM      7  C6  UNK A          44.460   2.968  10.125  0.00  0.00     0.223 A 
ATOM      8  C7  UNK A          46.532   3.770   8.992  0.00  0.00     0.085 A 
ATOM      9  C8  UNK A          46.349   1.674   7.151  0.00  0.00     0.075 A 
ATOM     10  C9  UNK A          47.398   2.589   7.066  0.00  0.00     0.071 A 
ATOM     11  C11 UNK A          47.488   3.635   7.986  0.00  0.00     0.074 A 
ENDROOT
BRANCH   5  12
ATOM     12  C4  UNK A          42.391  -0.073   9.091  0.00  0.00     0.004 A 
ATOM     13  C10 UNK A          42.576  -1.272   9.780  0.00  0.00     0.053 A 
ATOM     14  C13 UNK A          41.610  -2.275   9.707  0.00  0.00     0.099 A 
ATOM     15  C15 UNK A          40.459  -2.081   8.942  0.00  0.00     0.098 A 
ATOM     16  C14 UNK A          40.274  -0.882   8.253  0.00  0.00     0.040 A 
ATOM     17  C12 UNK A          41.240   0.122   8.327  0.00  0.00     0.017 A 
BRANCH  14  18
ATOM     18  O6  UNK A          41.802  -3.442  10.383  0.00  0.00    -0.358 OA
ATOM     19  H9  UNK A          42.637  -3.851  10.101  0.00  0.00     0.217 HD
ENDBRANCH  14  18
BRANCH  15  20
ATOM     20  O7  UNK A          39.508  -3.053   8.864  0.00  0.00    -0.358 OA
ATOM     21  H10 UNK A          39.904  -3.872   8.527  0.00  0.00     0.217 HD
ENDBRANCH  15  20
ENDBRANCH   5  12
BRANCH   6  22
ATOM     22  O2  UNK A          42.425   2.006  11.099  0.00  0.00    -0.355 OA
ATOM     23  H6  UNK A          42.845   2.029  11.974  0.00  0.00     0.218 HD
ENDBRANCH   6  22
BRANCH   8  24
ATOM     24  O3  UNK A          46.668   4.809   9.864  0.00  0.00    -0.360 OA
ATOM     25  H7  UNK A          45.941   4.813  10.504  0.00  0.00     0.217 HD
ENDBRANCH   8  24
BRANCH  10  26
ATOM     26  O5  UNK A          48.333   2.462   6.087  0.00  0.00    -0.361 OA
ATOM     27  H8  UNK A          48.283   1.564   5.717  0.00  0.00     0.217 HD
ENDBRANCH  10  26
TORSDOF 6
ENDMDL
MODEL 14
REMARK VINA RESULT:      -5.5      2.092      2.832
REMARK  6 active torsions:
REMARK  status: ('A' for Active; 'I' for Inactive)
REMARK    1  A    between atoms: O2_2  and  C5_12 
REMARK    2  A    between atoms: O3_3  and  C7_14 
REMARK    3  A    between atoms: O5_5  and  C9_16 
REMARK    4  A    between atoms: O6_6  and  C13_20 
REMARK    5  A    between atoms: O7_7  and  C15_22 
REMARK    6  A    between atoms: C3_10  and  C4_11 
ROOT
ATOM      1  O1  UNK A          42.336   0.291   8.229  0.00  0.00    -0.306 OA
ATOM      2  O4  UNK A          40.979   3.799   9.798  0.00  0.00    -0.284 OA
ATOM      3  C1  UNK A          42.778   2.590   8.870  0.00  0.00     0.084 A 
ATOM      4  C2  UNK A          43.181   1.364   8.343  0.00  0.00     0.096 A 
ATOM      5  C3  UNK A          41.021   0.437   8.643  0.00  0.00     0.123 A 
ATOM      6  C5  UNK A          40.509   1.562   9.175  0.00  0.00     0.152 A 
ATOM      7  C6  UNK A          41.388   2.748   9.323  0.00  0.00     0.223 A 
ATOM      8  C7  UNK A          43.685   3.649   8.963  0.00  0.00     0.085 A 
ATOM      9  C8  UNK A          44.496   1.189   7.909  0.00  0.00     0.075 A 
ATOM     10  C9  UNK A          45.404   2.244   8.001  0.00  0.00     0.071 A 
ATOM     11  C11 UNK A          44.998   3.471   8.527  0.00  0.00     0.074 A 
ENDROOT
BRANCH   5  12
ATOM     12  C4  UNK A          40.223  -0.788   8.465  0.00  0.00     0.004 A 
ATOM     13  C10 UNK A          39.585  -1.037   7.249  0.00  0.00     0.053 A 
ATOM     14  C13 UNK A          38.831  -2.197   7.080  0.00  0.00     0.099 A 
ATOM     15  C15 UNK A          38.712  -3.110   8.129  0.00  0.00     0.098 A 
ATOM     16  C14 UNK A          39.348  -2.862   9.345  0.00  0.00     0.040 A 
ATOM     17  C12 UNK A          40.104  -1.701   9.513  0.00  0.00     0.017 A 
BRANCH  14  18
ATOM     18  O6  UNK A          38.212  -2.428   5.889  0.00  0.00    -0.358 OA
ATOM     19  H9  UNK A          37.363  -1.959   5.864  0.00  0.00     0.217 HD
ENDBRANCH  14  18
BRANCH  15  20
ATOM     20  O7  UNK A          37.978  -4.248   7.976  0.00  0.00    -0.358 OA
ATOM     21  H10 UNK A          38.550  -4.966   7.661  0.00  0.00     0.217 HD
ENDBRANCH  15  20
ENDBRANCH   5  12
BRANCH   6  22
ATOM     22  O2  UNK A          39.205   1.665   9.607  0.00  0.00    -0.355 OA
ATOM     23  H6  UNK A          39.124   2.394  10.243  0.00  0.00     0.218 HD
ENDBRANCH   6  22
BRANCH   8  24
ATOM     24  O3  UNK A          43.342   4.867   9.469  0.00  0.00    -0.360 OA
ATOM     25  H7  UNK A          44.126   5.328   9.804  0.00  0.00     0.217 HD
ENDBRANCH   8  24
BRANCH  10  26
ATOM     26  O5  UNK A          46.685   2.076   7.578  0.00  0.00    -0.361 OA
ATOM     27  H8  UNK A          47.253   2.731   8.019  0.00  0.00     0.217 HD
ENDBRANCH  10  26
TORSDOF 6
ENDMDL
MODEL 15
REMARK VINA RESULT:      -5.5      2.645      6.834
REMARK  6 active torsions:
REMARK  status: ('A' for Active; 'I' for Inactive)
REMARK    1  A    between atoms: O2_2  and  C5_12 
REMARK    2  A    between atoms: O3_3  and  C7_14 
REMARK    3  A    between atoms: O5_5  and  C9_16 
REMARK    4  A    between atoms: O6_6  and  C13_20 
REMARK    5  A    between atoms: O7_7  and  C15_22 
REMARK    6  A    between atoms: C3_10  and  C4_11 
ROOT
ATOM      1  O1  UNK A          41.968   1.123  10.586  0.00  0.00    -0.306 OA
ATOM      2  O4  UNK A          39.609  -0.201   7.537  0.00  0.00    -0.284 OA
ATOM      3  C1  UNK A          40.522  -0.600   9.675  0.00  0.00     0.084 A 
ATOM      4  C2  UNK A          41.341  -0.092  10.681  0.00  0.00     0.096 A 
ATOM      5  C3  UNK A          41.767   1.884   9.445  0.00  0.00     0.123 A 
ATOM      6  C5  UNK A          41.008   1.506   8.400  0.00  0.00     0.152 A 
ATOM      7  C6  UNK A          40.314   0.197   8.456  0.00  0.00     0.223 A 
ATOM      8  C7  UNK A          39.909  -1.846   9.827  0.00  0.00     0.085 A 
ATOM      9  C8  UNK A          41.555  -0.830  11.846  0.00  0.00     0.075 A 
ATOM     10  C9  UNK A          40.945  -2.074  12.002  0.00  0.00     0.071 A 
ATOM     11  C11 UNK A          40.124  -2.581  10.993  0.00  0.00     0.074 A 
ENDROOT
BRANCH   5  12
ATOM     12  C4  UNK A          42.496   3.164   9.471  0.00  0.00     0.004 A 
ATOM     13  C10 UNK A          41.893   4.301  10.009  0.00  0.00     0.053 A 
ATOM     14  C13 UNK A          42.584   5.512  10.035  0.00  0.00     0.099 A 
ATOM     15  C15 UNK A          43.878   5.587   9.520  0.00  0.00     0.098 A 
ATOM     16  C14 UNK A          44.482   4.451   8.982  0.00  0.00     0.040 A 
ATOM     17  C12 UNK A          43.791   3.239   8.957  0.00  0.00     0.017 A 
BRANCH  14  18
ATOM     18  O6  UNK A          41.984   6.615  10.562  0.00  0.00    -0.358 OA
ATOM     19  H9  UNK A          41.935   7.315   9.890  0.00  0.00     0.217 HD
ENDBRANCH  14  18
BRANCH  15  20
ATOM     20  O7  UNK A          44.564   6.764   9.541  0.00  0.00    -0.358 OA
ATOM     21  H10 UNK A          45.042   6.850  10.381  0.00  0.00     0.217 HD
ENDBRANCH  15  20
ENDBRANCH   5  12
BRANCH   6  22
ATOM     22  O2  UNK A          40.854   2.272   7.265  0.00  0.00    -0.355 OA
ATOM     23  H6  UNK A          40.745   3.206   7.509  0.00  0.00     0.218 HD
ENDBRANCH   6  22
BRANCH   8  24
ATOM     24  O3  UNK A          39.099  -2.388   8.875  0.00  0.00    -0.360 OA
ATOM     25  H7  UNK A          38.176  -2.133   9.028  0.00  0.00     0.217 HD
ENDBRANCH   8  24
BRANCH  10  26
ATOM     26  O5  UNK A          41.152  -2.795  13.136  0.00  0.00    -0.361 OA
ATOM     27  H8  UNK A          42.106  -2.817  13.328  0.00  0.00     0.217 HD
ENDBRANCH  10  26
TORSDOF 6
ENDMDL
MODEL 16
REMARK VINA RESULT:      -5.5      2.206      3.158
REMARK  6 active torsions:
REMARK  status: ('A' for Active; 'I' for Inactive)
REMARK    1  A    between atoms: O2_2  and  C5_12 
REMARK    2  A    between atoms: O3_3  and  C7_14 
REMARK    3  A    between atoms: O5_5  and  C9_16 
REMARK    4  A    between atoms: O6_6  and  C13_20 
REMARK    5  A    between atoms: O7_7  and  C15_22 
REMARK    6  A    between atoms: C3_10  and  C4_11 
ROOT
ATOM      1  O1  UNK A          44.983   2.249   7.821  0.00  0.00    -0.306 OA
ATOM      2  O4  UNK A          47.011   0.761  11.027  0.00  0.00    -0.284 OA
ATOM      3  C1  UNK A          47.104   1.778   8.902  0.00  0.00     0.084 A 
ATOM      4  C2  UNK A          46.353   2.270   7.836  0.00  0.00     0.096 A 
ATOM      5  C3  UNK A          44.316   1.728   8.919  0.00  0.00     0.123 A 
ATOM      6  C5  UNK A          44.922   1.215  10.006  0.00  0.00     0.152 A 
ATOM      7  C6  UNK A          46.404   1.212  10.065  0.00  0.00     0.223 A 
ATOM      8  C7  UNK A          48.500   1.825   8.861  0.00  0.00     0.085 A 
ATOM      9  C8  UNK A          46.994   2.810   6.721  0.00  0.00     0.075 A 
ATOM     10  C9  UNK A          48.388   2.859   6.677  0.00  0.00     0.071 A 
ATOM     11  C11 UNK A          49.138   2.367   7.746  0.00  0.00     0.074 A 
ENDROOT
BRANCH   5  12
ATOM     12  C4  UNK A          42.851   1.765   8.774  0.00  0.00     0.004 A 
ATOM     13  C10 UNK A          42.137   2.893   9.181  0.00  0.00     0.053 A 
ATOM     14  C13 UNK A          40.750   2.929   9.042  0.00  0.00     0.099 A 
ATOM     15  C15 UNK A          40.075   1.835   8.498  0.00  0.00     0.098 A 
ATOM     16  C14 UNK A          40.788   0.708   8.092  0.00  0.00     0.040 A 
ATOM     17  C12 UNK A          42.176   0.672   8.230  0.00  0.00     0.017 A 
BRANCH  14  18
ATOM     18  O6  UNK A          40.064   4.035   9.443  0.00  0.00    -0.358 OA
ATOM     19  H9  UNK A          39.523   4.370   8.710  0.00  0.00     0.217 HD
ENDBRANCH  14  18
BRANCH  15  20
ATOM     20  O7  UNK A          38.720   1.859   8.357  0.00  0.00    -0.358 OA
ATOM     21  H10 UNK A          38.347   1.007   8.631  0.00  0.00     0.217 HD
ENDBRANCH  15  20
ENDBRANCH   5  12
BRANCH   6  22
ATOM     22  O2  UNK A          44.231   0.674  11.068  0.00  0.00    -0.355 OA
ATOM     23  H6  UNK A          43.410   1.171  11.215  0.00  0.00     0.218 HD
ENDBRANCH   6  22
BRANCH   8  24
ATOM     24  O3  UNK A          49.281   1.358   9.876  0.00  0.00    -0.360 OA
ATOM     25  H7  UNK A          49.027   0.453  10.111  0.00  0.00     0.217 HD
ENDBRANCH   8  24
BRANCH  10  26
ATOM     26  O5  UNK A          49.015   3.385   5.591  0.00  0.00    -0.361 OA
ATOM     27  H8  UNK A          49.575   2.700   5.186  0.00  0.00     0.217 HD
ENDBRANCH  10  26
TORSDOF 6
ENDMDL
MODEL 17
REMARK VINA RESULT:      -5.5      2.539      3.627
REMARK  6 active torsions:
REMARK  status: ('A' for Active; 'I' for Inactive)
REMARK    1  A    between atoms: O2_2  and  C5_12 
REMARK    2  A    between atoms: O3_3  and  C7_14 
REMARK    3  A    between atoms: O5_5  and  C9_16 
REMARK    4  A    between atoms: O6_6  and  C13_20 
REMARK    5  A    between atoms: O7_7  and  C15_22 
REMARK    6  A    between atoms: C3_10  and  C4_11 
ROOT
ATOM      1  O1  UNK A          43.144   1.217   9.936  0.00  0.00    -0.306 OA
ATOM      2  O4  UNK A          46.352   1.581   7.448  0.00  0.00    -0.284 OA
ATOM      3  C1  UNK A          45.546   1.426   9.659  0.00  0.00     0.084 A 
ATOM      4  C2  UNK A          44.409   1.302  10.455  0.00  0.00     0.096 A 
ATOM      5  C3  UNK A          42.991   1.243   8.558  0.00  0.00     0.123 A 
ATOM      6  C5  UNK A          44.004   1.367   7.680  0.00  0.00     0.152 A 
ATOM      7  C6  UNK A          45.390   1.468   8.197  0.00  0.00     0.223 A 
ATOM      8  C7  UNK A          46.812   1.510  10.245  0.00  0.00     0.085 A 
ATOM      9  C8  UNK A          44.531   1.263  11.845  0.00  0.00     0.075 A 
ATOM     10  C9  UNK A          45.793   1.346  12.434  0.00  0.00     0.071 A 
ATOM     11  C11 UNK A          46.931   1.470  11.635  0.00  0.00     0.074 A 
ENDROOT
BRANCH   5  12
ATOM     12  C4  UNK A          41.584   1.143   8.133  0.00  0.00     0.004 A 
ATOM     13  C10 UNK A          40.927  -0.087   8.175  0.00  0.00     0.053 A 
ATOM     14  C13 UNK A          39.595  -0.180   7.775  0.00  0.00     0.099 A 
ATOM     15  C15 UNK A          38.919   0.956   7.330  0.00  0.00     0.098 A 
ATOM     16  C14 UNK A          39.575   2.186   7.287  0.00  0.00     0.040 A 
ATOM     17  C12 UNK A          40.908   2.280   7.689  0.00  0.00     0.017 A 
BRANCH  14  18
ATOM     18  O6  UNK A          38.964  -1.387   7.819  0.00  0.00    -0.358 OA
ATOM     19  H9  UNK A          39.430  -2.022   7.251  0.00  0.00     0.217 HD
ENDBRANCH  14  18
BRANCH  15  20
ATOM     20  O7  UNK A          37.617   0.878   6.937  0.00  0.00    -0.358 OA
ATOM     21  H10 UNK A          37.312   1.748   6.636  0.00  0.00     0.217 HD
ENDBRANCH  15  20
ENDBRANCH   5  12
BRANCH   6  22
ATOM     22  O2  UNK A          43.815   1.423   6.317  0.00  0.00    -0.355 OA
ATOM     23  H6  UNK A          44.445   0.832   5.872  0.00  0.00     0.218 HD
ENDBRANCH   6  22
BRANCH   8  24
ATOM     24  O3  UNK A          47.954   1.633   9.513  0.00  0.00    -0.360 OA
ATOM     25  H7  UNK A          48.734   1.579  10.087  0.00  0.00     0.217 HD
ENDBRANCH   8  24
BRANCH  10  26
ATOM     26  O5  UNK A          45.915   1.308  13.788  0.00  0.00    -0.361 OA
ATOM     27  H8  UNK A          45.445   0.525  14.126  0.00  0.00     0.217 HD
ENDBRANCH  10  26
TORSDOF 6
ENDMDL
MODEL 18
REMARK VINA RESULT:      -5.5      2.654      7.481
REMARK  6 active torsions:
REMARK  status: ('A' for Active; 'I' for Inactive)
REMARK    1  A    between atoms: O2_2  and  C5_12 
REMARK    2  A    between atoms: O3_3  and  C7_14 
REMARK    3  A    between atoms: O5_5  and  C9_16 
REMARK    4  A    between atoms: O6_6  and  C13_20 
REMARK    5  A    between atoms: O7_7  and  C15_22 
REMARK    6  A    between atoms: C3_10  and  C4_11 
ROOT
ATOM      1  O1  UNK A          40.741  -1.210   7.682  0.00  0.00    -0.306 OA
ATOM      2  O4  UNK A          37.615   0.693   9.475  0.00  0.00    -0.284 OA
ATOM      3  C1  UNK A          38.352  -1.059   8.078  0.00  0.00     0.084 A 
ATOM      4  C2  UNK A          39.462  -1.664   7.493  0.00  0.00     0.096 A 
ATOM      5  C3  UNK A          40.939  -0.110   8.501  0.00  0.00     0.123 A 
ATOM      6  C5  UNK A          39.954   0.569   9.118  0.00  0.00     0.152 A 
ATOM      7  C6  UNK A          38.553   0.117   8.938  0.00  0.00     0.223 A 
ATOM      8  C7  UNK A          37.070  -1.565   7.848  0.00  0.00     0.085 A 
ATOM      9  C8  UNK A          39.296  -2.779   6.671  0.00  0.00     0.075 A 
ATOM     10  C9  UNK A          38.018  -3.288   6.439  0.00  0.00     0.071 A 
ATOM     11  C11 UNK A          36.907  -2.681   7.027  0.00  0.00     0.074 A 
ENDROOT
BRANCH   5  12
ATOM     12  C4  UNK A          42.357   0.272   8.619  0.00  0.00     0.004 A 
ATOM     13  C10 UNK A          42.934   1.120   7.673  0.00  0.00     0.053 A 
ATOM     14  C13 UNK A          44.275   1.483   7.786  0.00  0.00     0.099 A 
ATOM     15  C15 UNK A          45.042   0.995   8.844  0.00  0.00     0.098 A 
ATOM     16  C14 UNK A          44.467   0.147   9.790  0.00  0.00     0.040 A 
ATOM     17  C12 UNK A          43.124  -0.215   9.678  0.00  0.00     0.017 A 
BRANCH  14  18
ATOM     18  O6  UNK A          44.827   2.310   6.856  0.00  0.00    -0.358 OA
ATOM     19  H9  UNK A          44.361   2.210   6.010  0.00  0.00     0.217 HD
ENDBRANCH  14  18
BRANCH  15  20
ATOM     20  O7  UNK A          46.354   1.343   8.966  0.00  0.00    -0.358 OA
ATOM     21  H10 UNK A          46.693   1.048   9.826  0.00  0.00     0.217 HD
ENDBRANCH  15  20
ENDBRANCH   5  12
BRANCH   6  22
ATOM     22  O2  UNK A          40.181   1.680   9.901  0.00  0.00    -0.355 OA
ATOM     23  H6  UNK A          40.393   2.442   9.338  0.00  0.00     0.218 HD
ENDBRANCH   6  22
BRANCH   8  24
ATOM     24  O3  UNK A          35.952  -1.011   8.396  0.00  0.00    -0.360 OA
ATOM     25  H7  UNK A          35.949  -0.051   8.265  0.00  0.00     0.217 HD
ENDBRANCH   8  24
BRANCH  10  26
ATOM     26  O5  UNK A          37.854  -4.375   5.639  0.00  0.00    -0.361 OA
ATOM     27  H8  UNK A          37.508  -4.085   4.777  0.00  0.00     0.217 HD
ENDBRANCH  10  26
TORSDOF 6
ENDMDL
MODEL 19
REMARK VINA RESULT:      -5.5      6.810      9.928
REMARK  6 active torsions:
REMARK  status: ('A' for Active; 'I' for Inactive)
REMARK    1  A    between atoms: O2_2  and  C5_12 
REMARK    2  A    between atoms: O3_3  and  C7_14 
REMARK    3  A    between atoms: O5_5  and  C9_16 
REMARK    4  A    between atoms: O6_6  and  C13_20 
REMARK    5  A    between atoms: O7_7  and  C15_22 
REMARK    6  A    between atoms: C3_10  and  C4_11 
ROOT
ATOM      1  O1  UNK A          36.212  -3.700   7.067  0.00  0.00    -0.306 OA
ATOM      2  O4  UNK A          39.246  -0.982   7.214  0.00  0.00    -0.284 OA
ATOM      3  C1  UNK A          37.022  -1.527   7.782  0.00  0.00     0.084 A 
ATOM      4  C2  UNK A          36.025  -2.497   7.696  0.00  0.00     0.096 A 
ATOM      5  C3  UNK A          37.450  -3.967   6.503  0.00  0.00     0.123 A 
ATOM      6  C5  UNK A          38.491  -3.114   6.509  0.00  0.00     0.152 A 
ATOM      7  C6  UNK A          38.334  -1.799   7.175  0.00  0.00     0.223 A 
ATOM      8  C7  UNK A          36.774  -0.317   8.436  0.00  0.00     0.085 A 
ATOM      9  C8  UNK A          34.772  -2.261   8.262  0.00  0.00     0.075 A 
ATOM     10  C9  UNK A          34.521  -1.055   8.916  0.00  0.00     0.071 A 
ATOM     11  C11 UNK A          35.521  -0.085   9.002  0.00  0.00     0.074 A 
ENDROOT
BRANCH   5  12
ATOM     12  C4  UNK A          37.515  -5.291   5.860  0.00  0.00     0.004 A 
ATOM     13  C10 UNK A          37.833  -6.420   6.616  0.00  0.00     0.053 A 
ATOM     14  C13 UNK A          37.893  -7.673   6.008  0.00  0.00     0.099 A 
ATOM     15  C15 UNK A          37.638  -7.798   4.642  0.00  0.00     0.098 A 
ATOM     16  C14 UNK A          37.321  -6.670   3.885  0.00  0.00     0.040 A 
ATOM     17  C12 UNK A          37.260  -5.416   4.494  0.00  0.00     0.017 A 
BRANCH  14  18
ATOM     18  O6  UNK A          38.206  -8.767   6.756  0.00  0.00    -0.358 OA
ATOM     19  H9  UNK A          37.391  -9.201   7.059  0.00  0.00     0.217 HD
ENDBRANCH  14  18
BRANCH  15  20
ATOM     20  O7  UNK A          37.693  -9.017   4.036  0.00  0.00    -0.358 OA
ATOM     21  H10 UNK A          37.916  -9.698   4.690  0.00  0.00     0.217 HD
ENDBRANCH  15  20
ENDBRANCH   5  12
BRANCH   6  22
ATOM     22  O2  UNK A          39.699  -3.398   5.911  0.00  0.00    -0.355 OA
ATOM     23  H6  UNK A          39.899  -4.344   6.002  0.00  0.00     0.218 HD
ENDBRANCH   6  22
BRANCH   8  24
ATOM     24  O3  UNK A          37.714   0.663   8.548  0.00  0.00    -0.360 OA
ATOM     25  H7  UNK A          37.293   1.536   8.575  0.00  0.00     0.217 HD
ENDBRANCH   8  24
BRANCH  10  26
ATOM     26  O5  UNK A          33.300  -0.824   9.469  0.00  0.00    -0.361 OA
ATOM     27  H8  UNK A          32.836  -1.672   9.578  0.00  0.00     0.217 HD
ENDBRANCH  10  26
TORSDOF 6
ENDMDL
MODEL 20
REMARK VINA RESULT:      -5.5      3.600      5.520
REMARK  6 active torsions:
REMARK  status: ('A' for Active; 'I' for Inactive)
REMARK    1  A    between atoms: O2_2  and  C5_12 
REMARK    2  A    between atoms: O3_3  and  C7_14 
REMARK    3  A    between atoms: O5_5  and  C9_16 
REMARK    4  A    between atoms: O6_6  and  C13_20 
REMARK    5  A    between atoms: O7_7  and  C15_22 
REMARK    6  A    between atoms: C3_10  and  C4_11 
ROOT
ATOM      1  O1  UNK A          39.583  -1.040   9.370  0.00  0.00    -0.306 OA
ATOM      2  O4  UNK A          40.257   2.715   7.936  0.00  0.00    -0.284 OA
ATOM      3  C1  UNK A          40.651   1.124   9.631  0.00  0.00     0.084 A 
ATOM      4  C2  UNK A          40.381  -0.172  10.068  0.00  0.00     0.096 A 
ATOM      5  C3  UNK A          39.032  -0.614   8.171  0.00  0.00     0.123 A 
ATOM      6  C5  UNK A          39.207   0.612   7.644  0.00  0.00     0.152 A 
ATOM      7  C6  UNK A          40.059   1.586   8.367  0.00  0.00     0.223 A 
ATOM      8  C7  UNK A          41.471   1.965  10.387  0.00  0.00     0.085 A 
ATOM      9  C8  UNK A          40.928  -0.633  11.266  0.00  0.00     0.075 A 
ATOM     10  C9  UNK A          41.748   0.205  12.022  0.00  0.00     0.071 A 
ATOM     11  C11 UNK A          42.018   1.502  11.583  0.00  0.00     0.074 A 
ENDROOT
BRANCH   5  12
ATOM     12  C4  UNK A          38.198  -1.642   7.524  0.00  0.00     0.004 A 
ATOM     13  C10 UNK A          38.790  -2.620   6.723  0.00  0.00     0.053 A 
ATOM     14  C13 UNK A          38.000  -3.593   6.112  0.00  0.00     0.099 A 
ATOM     15  C15 UNK A          36.618  -3.588   6.300  0.00  0.00     0.098 A 
ATOM     16  C14 UNK A          36.026  -2.611   7.100  0.00  0.00     0.040 A 
ATOM     17  C12 UNK A          36.815  -1.638   7.712  0.00  0.00     0.017 A 
BRANCH  14  18
ATOM     18  O6  UNK A          38.589  -4.542   5.332  0.00  0.00    -0.358 OA
ATOM     19  H9  UNK A          39.555  -4.476   5.408  0.00  0.00     0.217 HD
ENDBRANCH  14  18
BRANCH  15  20
ATOM     20  O7  UNK A          35.836  -4.535   5.709  0.00  0.00    -0.358 OA
ATOM     21  H10 UNK A          36.396  -5.219   5.309  0.00  0.00     0.217 HD
ENDBRANCH  15  20
ENDBRANCH   5  12
BRANCH   6  22
ATOM     22  O2  UNK A          38.619   1.015   6.465  0.00  0.00    -0.355 OA
ATOM     23  H6  UNK A          39.148   0.710   5.710  0.00  0.00     0.218 HD
ENDBRANCH   6  22
BRANCH   8  24
ATOM     24  O3  UNK A          41.767   3.240  10.005  0.00  0.00    -0.360 OA
ATOM     25  H7  UNK A          42.655   3.282   9.620  0.00  0.00     0.217 HD
ENDBRANCH   8  24
BRANCH  10  26
ATOM     26  O5  UNK A          42.284  -0.243  13.190  0.00  0.00    -0.361 OA
ATOM     27  H8  UNK A          43.239  -0.383  13.067  0.00  0.00     0.217 HD
ENDBRANCH  10  26
TORSDOF 6
ENDMDL
