MODEL 1
REMARK VINA RESULT:      -6.3      0.000      0.000
REMARK  6 active torsions:
REMARK  status: ('A' for Active; 'I' for Inactive)
REMARK    1  A    between atoms: O2_2  and  C5_12 
REMARK    2  A    between atoms: O3_3  and  C7_14 
REMARK    3  A    between atoms: O5_5  and  C9_16 
REMARK    4  A    between atoms: O6_6  and  C13_20 
REMARK    5  A    between atoms: O7_7  and  C15_22 
REMARK    6  A    between atoms: C3_10  and  C4_11 
ROOT
ATOM      1  O1  UNK A          43.230   2.006   7.860  0.00  0.00    -0.306 OA
ATOM      2  O4  UNK A          43.780   5.206  10.323  0.00  0.00    -0.284 OA
ATOM      3  C1  UNK A          44.726   3.662   8.812  0.00  0.00     0.084 A 
ATOM      4  C2  UNK A          44.473   2.567   7.988  0.00  0.00     0.096 A 
ATOM      5  C3  UNK A          42.176   2.560   8.571  0.00  0.00     0.123 A 
ATOM      6  C5  UNK A          42.289   3.611   9.405  0.00  0.00     0.152 A 
ATOM      7  C6  UNK A          43.616   4.247   9.580  0.00  0.00     0.223 A 
ATOM      8  C7  UNK A          46.016   4.192   8.905  0.00  0.00     0.085 A 
ATOM      9  C8  UNK A          45.510   1.993   7.253  0.00  0.00     0.075 A 
ATOM     10  C9  UNK A          46.799   2.519   7.342  0.00  0.00     0.071 A 
ATOM     11  C11 UNK A          47.051   3.616   8.167  0.00  0.00     0.074 A 
ENDROOT
BRANCH   5  12
ATOM     12  C4  UNK A          40.898   1.864   8.343  0.00  0.00     0.004 A 
ATOM     13  C10 UNK A          40.139   2.150   7.208  0.00  0.00     0.053 A 
ATOM     14  C13 UNK A          38.930   1.490   6.992  0.00  0.00     0.099 A 
ATOM     15  C15 UNK A          38.479   0.544   7.912  0.00  0.00     0.098 A 
ATOM     16  C14 UNK A          39.237   0.257   9.047  0.00  0.00     0.040 A 
ATOM     17  C12 UNK A          40.447   0.917   9.263  0.00  0.00     0.017 A 
BRANCH  14  18
ATOM     18  O6  UNK A          38.197   1.779   5.881  0.00  0.00    -0.358 OA
ATOM     19  H9  UNK A          38.712   2.350   5.288  0.00  0.00     0.217 HD
ENDBRANCH  14  18
BRANCH  15  20
ATOM     20  O7  UNK A          37.300  -0.109   7.711  0.00  0.00    -0.358 OA
ATOM     21  H10 UNK A          36.616   0.525   7.443  0.00  0.00     0.217 HD
ENDBRANCH  15  20
ENDBRANCH   5  12
BRANCH   6  22
ATOM     22  O2  UNK A          41.227   4.118  10.123  0.00  0.00    -0.355 OA
ATOM     23  H6  UNK A          40.390   3.828   9.725  0.00  0.00     0.218 HD
ENDBRANCH   6  22
BRANCH   8  24
ATOM     24  O3  UNK A          46.317   5.260   9.695  0.00  0.00    -0.360 OA
ATOM     25  H7  UNK A          45.510   5.643  10.071  0.00  0.00     0.217 HD
ENDBRANCH   8  24
BRANCH  10  26
ATOM     26  O5  UNK A          47.812   1.961   6.625  0.00  0.00    -0.361 OA
ATOM     27  H8  UNK A          47.704   2.200   5.688  0.00  0.00     0.217 HD
ENDBRANCH  10  26
TORSDOF 6
ENDMDL
MODEL 2
REMARK VINA RESULT:      -6.1      1.212      3.017
REMARK  6 active torsions:
REMARK  status: ('A' for Active; 'I' for Inactive)
REMARK    1  A    between atoms: O2_2  and  C5_12 
REMARK    2  A    between atoms: O3_3  and  C7_14 
REMARK    3  A    between atoms: O5_5  and  C9_16 
REMARK    4  A    between atoms: O6_6  and  C13_20 
REMARK    5  A    between atoms: O7_7  and  C15_22 
REMARK    6  A    between atoms: C3_10  and  C4_11 
ROOT
ATOM      1  O1  UNK A          42.448   3.328   9.027  0.00  0.00    -0.306 OA
ATOM      2  O4  UNK A          46.034   2.279   7.398  0.00  0.00    -0.284 OA
ATOM      3  C1  UNK A          44.824   3.760   8.778  0.00  0.00     0.084 A 
ATOM      4  C2  UNK A          43.569   4.067   9.301  0.00  0.00     0.096 A 
ATOM      5  C3  UNK A          42.572   2.220   8.203  0.00  0.00     0.123 A 
ATOM      6  C5  UNK A          43.721   1.821   7.628  0.00  0.00     0.152 A 
ATOM      7  C6  UNK A          44.959   2.593   7.892  0.00  0.00     0.223 A 
ATOM      8  C7  UNK A          45.931   4.551   9.092  0.00  0.00     0.085 A 
ATOM      9  C8  UNK A          43.415   5.170  10.142  0.00  0.00     0.075 A 
ATOM     10  C9  UNK A          44.519   5.962  10.458  0.00  0.00     0.071 A 
ATOM     11  C11 UNK A          45.775   5.652   9.933  0.00  0.00     0.074 A 
ENDROOT
BRANCH   5  12
ATOM     12  C4  UNK A          41.295   1.516   7.990  0.00  0.00     0.004 A 
ATOM     13  C10 UNK A          40.356   2.026   7.093  0.00  0.00     0.053 A 
ATOM     14  C13 UNK A          39.149   1.359   6.891  0.00  0.00     0.099 A 
ATOM     15  C15 UNK A          38.878   0.182   7.589  0.00  0.00     0.098 A 
ATOM     16  C14 UNK A          39.815  -0.329   8.486  0.00  0.00     0.040 A 
ATOM     17  C12 UNK A          41.024   0.338   8.687  0.00  0.00     0.017 A 
BRANCH  14  18
ATOM     18  O6  UNK A          38.240   1.868   6.014  0.00  0.00    -0.358 OA
ATOM     19  H9  UNK A          37.695   1.150   5.653  0.00  0.00     0.217 HD
ENDBRANCH  14  18
BRANCH  15  20
ATOM     20  O7  UNK A          37.702  -0.480   7.399  0.00  0.00    -0.358 OA
ATOM     21  H10 UNK A          37.842  -1.232   6.802  0.00  0.00     0.217 HD
ENDBRANCH  15  20
ENDBRANCH   5  12
BRANCH   6  22
ATOM     22  O2  UNK A          43.804   0.733   6.786  0.00  0.00    -0.355 OA
ATOM     23  H6  UNK A          43.589   1.001   5.878  0.00  0.00     0.218 HD
ENDBRANCH   6  22
BRANCH   8  24
ATOM     24  O3  UNK A          47.179   4.295   8.606  0.00  0.00    -0.360 OA
ATOM     25  H7  UNK A          47.737   5.085   8.667  0.00  0.00     0.217 HD
ENDBRANCH   8  24
BRANCH  10  26
ATOM     26  O5  UNK A          44.371   7.037  11.278  0.00  0.00    -0.361 OA
ATOM     27  H8  UNK A          44.708   7.829  10.824  0.00  0.00     0.217 HD
ENDBRANCH  10  26
TORSDOF 6
ENDMDL
MODEL 3
REMARK VINA RESULT:      -6.1      3.085      5.163
REMARK  6 active torsions:
REMARK  status: ('A' for Active; 'I' for Inactive)
REMARK    1  A    between atoms: O2_2  and  C5_12 
REMARK    2  A    between atoms: O3_3  and  C7_14 
REMARK    3  A    between atoms: O5_5  and  C9_16 
REMARK    4  A    between atoms: O6_6  and  C13_20 
REMARK    5  A    between atoms: O7_7  and  C15_22 
REMARK    6  A    between atoms: C3_10  and  C4_11 
ROOT
ATOM      1  O1  UNK A          39.787   0.229   8.812  0.00  0.00    -0.306 OA
ATOM      2  O4  UNK A          43.623  -0.690   9.839  0.00  0.00    -0.284 OA
ATOM      3  C1  UNK A          41.961   0.967   9.600  0.00  0.00     0.084 A 
ATOM      4  C2  UNK A          40.640   1.215   9.234  0.00  0.00     0.096 A 
ATOM      5  C3  UNK A          40.257  -1.074   8.761  0.00  0.00     0.123 A 
ATOM      6  C5  UNK A          41.511  -1.446   9.079  0.00  0.00     0.152 A 
ATOM      7  C6  UNK A          42.470  -0.412   9.535  0.00  0.00     0.223 A 
ATOM      8  C7  UNK A          42.785   2.013  10.021  0.00  0.00     0.085 A 
ATOM      9  C8  UNK A          40.135   2.515   9.285  0.00  0.00     0.075 A 
ATOM     10  C9  UNK A          40.954   3.563   9.705  0.00  0.00     0.071 A 
ATOM     11  C11 UNK A          42.277   3.311  10.072  0.00  0.00     0.074 A 
ENDROOT
BRANCH   5  12
ATOM     12  C4  UNK A          39.241  -2.034   8.293  0.00  0.00     0.004 A 
ATOM     13  C10 UNK A          39.403  -2.679   7.066  0.00  0.00     0.053 A 
ATOM     14  C13 UNK A          38.442  -3.588   6.624  0.00  0.00     0.099 A 
ATOM     15  C15 UNK A          37.318  -3.851   7.408  0.00  0.00     0.098 A 
ATOM     16  C14 UNK A          37.156  -3.206   8.634  0.00  0.00     0.040 A 
ATOM     17  C12 UNK A          38.117  -2.297   9.076  0.00  0.00     0.017 A 
BRANCH  14  18
ATOM     18  O6  UNK A          38.610  -4.211   5.425  0.00  0.00    -0.358 OA
ATOM     19  H9  UNK A          39.071  -5.056   5.555  0.00  0.00     0.217 HD
ENDBRANCH  14  18
BRANCH  15  20
ATOM     20  O7  UNK A          36.373  -4.738   6.987  0.00  0.00    -0.358 OA
ATOM     21  H10 UNK A          35.502  -4.473   7.322  0.00  0.00     0.217 HD
ENDBRANCH  15  20
ENDBRANCH   5  12
BRANCH   6  22
ATOM     22  O2  UNK A          41.956  -2.747   8.985  0.00  0.00    -0.355 OA
ATOM     23  H6  UNK A          41.212  -3.337   8.780  0.00  0.00     0.218 HD
ENDBRANCH   6  22
BRANCH   8  24
ATOM     24  O3  UNK A          44.083   1.824  10.390  0.00  0.00    -0.360 OA
ATOM     25  H7  UNK A          44.358   2.501  11.026  0.00  0.00     0.217 HD
ENDBRANCH   8  24
BRANCH  10  26
ATOM     26  O5  UNK A          40.464   4.831   9.756  0.00  0.00    -0.361 OA
ATOM     27  H8  UNK A          41.096   5.432   9.326  0.00  0.00     0.217 HD
ENDBRANCH  10  26
TORSDOF 6
ENDMDL
MODEL 4
REMARK VINA RESULT:      -5.9      3.384      4.210
REMARK  6 active torsions:
REMARK  status: ('A' for Active; 'I' for Inactive)
REMARK    1  A    between atoms: O2_2  and  C5_12 
REMARK    2  A    between atoms: O3_3  and  C7_14 
REMARK    3  A    between atoms: O5_5  and  C9_16 
REMARK    4  A    between atoms: O6_6  and  C13_20 
REMARK    5  A    between atoms: O7_7  and  C15_22 
REMARK    6  A    between atoms: C3_10  and  C4_11 
ROOT
ATOM      1  O1  UNK A          45.225   0.179   9.933  0.00  0.00    -0.306 OA
ATOM      2  O4  UNK A          44.382   2.227   6.512  0.00  0.00    -0.284 OA
ATOM      3  C1  UNK A          46.001   1.550   8.087  0.00  0.00     0.084 A 
ATOM      4  C2  UNK A          46.224   0.834   9.261  0.00  0.00     0.096 A 
ATOM      5  C3  UNK A          43.941   0.220   9.413  0.00  0.00     0.123 A 
ATOM      6  C5  UNK A          43.592   0.882   8.295  0.00  0.00     0.152 A 
ATOM      7  C6  UNK A          44.638   1.609   7.537  0.00  0.00     0.223 A 
ATOM      8  C7  UNK A          47.059   2.200   7.446  0.00  0.00     0.085 A 
ATOM      9  C8  UNK A          47.508   0.765   9.804  0.00  0.00     0.075 A 
ATOM     10  C9  UNK A          48.567   1.412   9.166  0.00  0.00     0.071 A 
ATOM     11  C11 UNK A          48.342   2.129   7.990  0.00  0.00     0.074 A 
ENDROOT
BRANCH   5  12
ATOM     12  C4  UNK A          42.966  -0.523  10.230  0.00  0.00     0.004 A 
ATOM     13  C10 UNK A          42.592  -1.817   9.867  0.00  0.00     0.053 A 
ATOM     14  C13 UNK A          41.670  -2.521  10.641  0.00  0.00     0.099 A 
ATOM     15  C15 UNK A          41.119  -1.930  11.778  0.00  0.00     0.098 A 
ATOM     16  C14 UNK A          41.492  -0.636  12.142  0.00  0.00     0.040 A 
ATOM     17  C12 UNK A          42.415   0.068  11.368  0.00  0.00     0.017 A 
BRANCH  14  18
ATOM     18  O6  UNK A          41.313  -3.783  10.276  0.00  0.00    -0.358 OA
ATOM     19  H9  UNK A          40.352  -3.826  10.138  0.00  0.00     0.217 HD
ENDBRANCH  14  18
BRANCH  15  20
ATOM     20  O7  UNK A          40.219  -2.608  12.543  0.00  0.00    -0.358 OA
ATOM     21  H10 UNK A          39.417  -2.784  12.026  0.00  0.00     0.217 HD
ENDBRANCH  15  20
ENDBRANCH   5  12
BRANCH   6  22
ATOM     22  O2  UNK A          42.298   0.931   7.822  0.00  0.00    -0.355 OA
ATOM     23  H6  UNK A          41.692   1.170   8.542  0.00  0.00     0.218 HD
ENDBRANCH   6  22
BRANCH   8  24
ATOM     24  O3  UNK A          46.895   2.913   6.296  0.00  0.00    -0.360 OA
ATOM     25  H7  UNK A          47.142   3.840   6.433  0.00  0.00     0.217 HD
ENDBRANCH   8  24
BRANCH  10  26
ATOM     26  O5  UNK A          49.819   1.346   9.693  0.00  0.00    -0.361 OA
ATOM     27  H8  UNK A          49.935   2.074  10.327  0.00  0.00     0.217 HD
ENDBRANCH  10  26
TORSDOF 6
ENDMDL
MODEL 5
REMARK VINA RESULT:      -5.9      2.160      2.544
REMARK  6 active torsions:
REMARK  status: ('A' for Active; 'I' for Inactive)
REMARK    1  A    between atoms: O2_2  and  C5_12 
REMARK    2  A    between atoms: O3_3  and  C7_14 
REMARK    3  A    between atoms: O5_5  and  C9_16 
REMARK    4  A    between atoms: O6_6  and  C13_20 
REMARK    5  A    between atoms: O7_7  and  C15_22 
REMARK    6  A    between atoms: C3_10  and  C4_11 
ROOT
ATOM      1  O1  UNK A          44.043   1.519   7.635  0.00  0.00    -0.306 OA
ATOM      2  O4  UNK A          45.402   1.010  11.443  0.00  0.00    -0.284 OA
ATOM      3  C1  UNK A          45.904   1.505   9.193  0.00  0.00     0.084 A 
ATOM      4  C2  UNK A          45.377   1.664   7.913  0.00  0.00     0.096 A 
ATOM      5  C3  UNK A          43.180   1.213   8.676  0.00  0.00     0.123 A 
ATOM      6  C5  UNK A          43.561   1.025   9.953  0.00  0.00     0.152 A 
ATOM      7  C6  UNK A          44.996   1.167  10.299  0.00  0.00     0.223 A 
ATOM      8  C7  UNK A          47.274   1.664   9.416  0.00  0.00     0.085 A 
ATOM      9  C8  UNK A          46.219   1.982   6.846  0.00  0.00     0.075 A 
ATOM     10  C9  UNK A          47.588   2.142   7.065  0.00  0.00     0.071 A 
ATOM     11  C11 UNK A          48.113   1.983   8.349  0.00  0.00     0.074 A 
ENDROOT
BRANCH   5  12
ATOM     12  C4  UNK A          41.778   1.086   8.241  0.00  0.00     0.004 A 
ATOM     13  C10 UNK A          41.141  -0.154   8.291  0.00  0.00     0.053 A 
ATOM     14  C13 UNK A          39.813  -0.273   7.881  0.00  0.00     0.099 A 
ATOM     15  C15 UNK A          39.122   0.848   7.420  0.00  0.00     0.098 A 
ATOM     16  C14 UNK A          39.759   2.088   7.370  0.00  0.00     0.040 A 
ATOM     17  C12 UNK A          41.086   2.207   7.781  0.00  0.00     0.017 A 
BRANCH  14  18
ATOM     18  O6  UNK A          39.202  -1.489   7.932  0.00  0.00    -0.358 OA
ATOM     19  H9  UNK A          38.382  -1.466   7.414  0.00  0.00     0.217 HD
ENDBRANCH  14  18
BRANCH  15  20
ATOM     20  O7  UNK A          37.825   0.744   7.018  0.00  0.00    -0.358 OA
ATOM     21  H10 UNK A          37.241   1.122   7.695  0.00  0.00     0.217 HD
ENDBRANCH  15  20
ENDBRANCH   5  12
BRANCH   6  22
ATOM     22  O2  UNK A          42.682   0.690  10.959  0.00  0.00    -0.355 OA
ATOM     23  H6  UNK A          43.171   0.503  11.777  0.00  0.00     0.218 HD
ENDBRANCH   6  22
BRANCH   8  24
ATOM     24  O3  UNK A          47.840   1.519  10.648  0.00  0.00    -0.360 OA
ATOM     25  H7  UNK A          47.187   1.690  11.344  0.00  0.00     0.217 HD
ENDBRANCH   8  24
BRANCH  10  26
ATOM     26  O5  UNK A          48.410   2.453   6.027  0.00  0.00    -0.361 OA
ATOM     27  H8  UNK A          48.142   1.938   5.247  0.00  0.00     0.217 HD
ENDBRANCH  10  26
TORSDOF 6
ENDMDL
MODEL 6
REMARK VINA RESULT:      -5.8      7.426     10.866
REMARK  6 active torsions:
REMARK  status: ('A' for Active; 'I' for Inactive)
REMARK    1  A    between atoms: O2_2  and  C5_12 
REMARK    2  A    between atoms: O3_3  and  C7_14 
REMARK    3  A    between atoms: O5_5  and  C9_16 
REMARK    4  A    between atoms: O6_6  and  C13_20 
REMARK    5  A    between atoms: O7_7  and  C15_22 
REMARK    6  A    between atoms: C3_10  and  C4_11 
ROOT
ATOM      1  O1  UNK A          37.929  -5.023   5.598  0.00  0.00    -0.306 OA
ATOM      2  O4  UNK A          37.372  -6.137   9.479  0.00  0.00    -0.284 OA
ATOM      3  C1  UNK A          37.902  -4.422   7.949  0.00  0.00     0.084 A 
ATOM      4  C2  UNK A          38.079  -4.104   6.604  0.00  0.00     0.096 A 
ATOM      5  C3  UNK A          37.572  -6.320   5.934  0.00  0.00     0.123 A 
ATOM      6  C5  UNK A          37.380  -6.756   7.192  0.00  0.00     0.152 A 
ATOM      7  C6  UNK A          37.536  -5.799   8.313  0.00  0.00     0.223 A 
ATOM      8  C7  UNK A          38.070  -3.443   8.932  0.00  0.00     0.085 A 
ATOM      9  C8  UNK A          38.429  -2.805   6.234  0.00  0.00     0.075 A 
ATOM     10  C9  UNK A          38.597  -1.825   7.212  0.00  0.00     0.071 A 
ATOM     11  C11 UNK A          38.418  -2.145   8.559  0.00  0.00     0.074 A 
ENDROOT
BRANCH   5  12
ATOM     12  C4  UNK A          37.444  -7.203   4.761  0.00  0.00     0.004 A 
ATOM     13  C10 UNK A          38.488  -8.061   4.415  0.00  0.00     0.053 A 
ATOM     14  C13 UNK A          38.365  -8.898   3.307  0.00  0.00     0.099 A 
ATOM     15  C15 UNK A          37.199  -8.875   2.541  0.00  0.00     0.098 A 
ATOM     16  C14 UNK A          36.155  -8.017   2.886  0.00  0.00     0.040 A 
ATOM     17  C12 UNK A          36.277  -7.180   3.996  0.00  0.00     0.017 A 
BRANCH  14  18
ATOM     18  O6  UNK A          39.391  -9.731   2.978  0.00  0.00    -0.358 OA
ATOM     19  H9  UNK A          40.132  -9.598   3.592  0.00  0.00     0.217 HD
ENDBRANCH  14  18
BRANCH  15  20
ATOM     20  O7  UNK A          37.067  -9.688   1.456  0.00  0.00    -0.358 OA
ATOM     21  H10 UNK A          37.508  -9.288   0.691  0.00  0.00     0.217 HD
ENDBRANCH  15  20
ENDBRANCH   5  12
BRANCH   6  22
ATOM     22  O2  UNK A          37.057  -8.062   7.495  0.00  0.00    -0.355 OA
ATOM     23  H6  UNK A          36.298  -8.082   8.100  0.00  0.00     0.218 HD
ENDBRANCH   6  22
BRANCH   8  24
ATOM     24  O3  UNK A          37.908  -3.701  10.261  0.00  0.00    -0.360 OA
ATOM     25  H7  UNK A          37.363  -3.016  10.676  0.00  0.00     0.217 HD
ENDBRANCH   8  24
BRANCH  10  26
ATOM     26  O5  UNK A          38.937  -0.558   6.854  0.00  0.00    -0.361 OA
ATOM     27  H8  UNK A          39.699  -0.594   6.250  0.00  0.00     0.217 HD
ENDBRANCH  10  26
TORSDOF 6
ENDMDL
MODEL 7
REMARK VINA RESULT:      -5.8      1.775      7.064
REMARK  6 active torsions:
REMARK  status: ('A' for Active; 'I' for Inactive)
REMARK    1  A    between atoms: O2_2  and  C5_12 
REMARK    2  A    between atoms: O3_3  and  C7_14 
REMARK    3  A    between atoms: O5_5  and  C9_16 
REMARK    4  A    between atoms: O6_6  and  C13_20 
REMARK    5  A    between atoms: O7_7  and  C15_22 
REMARK    6  A    between atoms: C3_10  and  C4_11 
ROOT
ATOM      1  O1  UNK A          42.801   2.098   7.722  0.00  0.00    -0.306 OA
ATOM      2  O4  UNK A          42.263  -1.353   9.822  0.00  0.00    -0.284 OA
ATOM      3  C1  UNK A          41.328   0.302   8.426  0.00  0.00     0.084 A 
ATOM      4  C2  UNK A          41.576   1.483   7.730  0.00  0.00     0.096 A 
ATOM      5  C3  UNK A          43.840   1.512   8.427  0.00  0.00     0.123 A 
ATOM      6  C5  UNK A          43.731   0.379   9.145  0.00  0.00     0.152 A 
ATOM      7  C6  UNK A          42.423  -0.319   9.187  0.00  0.00     0.223 A 
ATOM      8  C7  UNK A          40.058  -0.279   8.399  0.00  0.00     0.085 A 
ATOM      9  C8  UNK A          40.553   2.093   7.003  0.00  0.00     0.075 A 
ATOM     10  C9  UNK A          39.283   1.515   6.973  0.00  0.00     0.071 A 
ATOM     11  C11 UNK A          39.037   0.331   7.671  0.00  0.00     0.074 A 
ENDROOT
BRANCH   5  12
ATOM     12  C4  UNK A          45.099   2.272   8.336  0.00  0.00     0.004 A 
ATOM     13  C10 UNK A          45.983   2.036   7.283  0.00  0.00     0.053 A 
ATOM     14  C13 UNK A          47.173   2.757   7.196  0.00  0.00     0.099 A 
ATOM     15  C15 UNK A          47.481   3.714   8.163  0.00  0.00     0.098 A 
ATOM     16  C14 UNK A          46.598   3.951   9.216  0.00  0.00     0.040 A 
ATOM     17  C12 UNK A          45.407   3.230   9.302  0.00  0.00     0.017 A 
BRANCH  14  18
ATOM     18  O6  UNK A          48.030   2.516   6.164  0.00  0.00    -0.358 OA
ATOM     19  H9  UNK A          48.481   3.339   5.913  0.00  0.00     0.217 HD
ENDBRANCH  14  18
BRANCH  15  20
ATOM     20  O7  UNK A          48.641   4.426   8.088  0.00  0.00    -0.358 OA
ATOM     21  H10 UNK A          49.286   4.069   8.718  0.00  0.00     0.217 HD
ENDBRANCH  15  20
ENDBRANCH   5  12
BRANCH   6  22
ATOM     22  O2  UNK A          44.777  -0.161   9.863  0.00  0.00    -0.355 OA
ATOM     23  H6  UNK A          44.843   0.274  10.728  0.00  0.00     0.218 HD
ENDBRANCH   6  22
BRANCH   8  24
ATOM     24  O3  UNK A          39.763  -1.433   9.062  0.00  0.00    -0.360 OA
ATOM     25  H7  UNK A          40.320  -2.160   8.744  0.00  0.00     0.217 HD
ENDBRANCH   8  24
BRANCH  10  26
ATOM     26  O5  UNK A          38.284   2.107   6.265  0.00  0.00    -0.361 OA
ATOM     27  H8  UNK A          37.430   1.753   6.566  0.00  0.00     0.217 HD
ENDBRANCH  10  26
TORSDOF 6
ENDMDL
MODEL 8
REMARK VINA RESULT:      -5.7      2.345      7.124
REMARK  6 active torsions:
REMARK  status: ('A' for Active; 'I' for Inactive)
REMARK    1  A    between atoms: O2_2  and  C5_12 
REMARK    2  A    between atoms: O3_3  and  C7_14 
REMARK    3  A    between atoms: O5_5  and  C9_16 
REMARK    4  A    between atoms: O6_6  and  C13_20 
REMARK    5  A    between atoms: O7_7  and  C15_22 
REMARK    6  A    between atoms: C3_10  and  C4_11 
ROOT
ATOM      1  O1  UNK A          43.884  -0.126   9.205  0.00  0.00    -0.306 OA
ATOM      2  O4  UNK A          40.944   2.024   7.377  0.00  0.00    -0.284 OA
ATOM      3  C1  UNK A          41.531   0.144   8.673  0.00  0.00     0.084 A 
ATOM      4  C2  UNK A          42.581  -0.547   9.275  0.00  0.00     0.096 A 
ATOM      5  C3  UNK A          44.166   1.043   8.517  0.00  0.00     0.123 A 
ATOM      6  C5  UNK A          43.247   1.797   7.886  0.00  0.00     0.152 A 
ATOM      7  C6  UNK A          41.825   1.379   7.930  0.00  0.00     0.223 A 
ATOM      8  C7  UNK A          40.222  -0.334   8.777  0.00  0.00     0.085 A 
ATOM      9  C8  UNK A          42.328  -1.722   9.984  0.00  0.00     0.075 A 
ATOM     10  C9  UNK A          41.023  -2.202  10.090  0.00  0.00     0.071 A 
ATOM     11  C11 UNK A          39.972  -1.508   9.487  0.00  0.00     0.074 A 
ENDROOT
BRANCH   5  12
ATOM     12  C4  UNK A          45.600   1.381   8.519  0.00  0.00     0.004 A 
ATOM     13  C10 UNK A          46.249   1.683   7.321  0.00  0.00     0.053 A 
ATOM     14  C13 UNK A          47.605   2.004   7.324  0.00  0.00     0.099 A 
ATOM     15  C15 UNK A          48.316   2.020   8.525  0.00  0.00     0.098 A 
ATOM     16  C14 UNK A          47.668   1.718   9.722  0.00  0.00     0.040 A 
ATOM     17  C12 UNK A          46.310   1.398   9.720  0.00  0.00     0.017 A 
BRANCH  14  18
ATOM     18  O6  UNK A          48.228   2.295   6.148  0.00  0.00    -0.358 OA
ATOM     19  H9  UNK A          48.647   3.169   6.207  0.00  0.00     0.217 HD
ENDBRANCH  14  18
BRANCH  15  20
ATOM     20  O7  UNK A          49.642   2.333   8.540  0.00  0.00    -0.358 OA
ATOM     21  H10 UNK A          50.163   1.563   8.265  0.00  0.00     0.217 HD
ENDBRANCH  15  20
ENDBRANCH   5  12
BRANCH   6  22
ATOM     22  O2  UNK A          43.564   2.938   7.182  0.00  0.00    -0.355 OA
ATOM     23  H6  UNK A          43.640   2.732   6.236  0.00  0.00     0.218 HD
ENDBRANCH   6  22
BRANCH   8  24
ATOM     24  O3  UNK A          39.161   0.303   8.208  0.00  0.00    -0.360 OA
ATOM     25  H7  UNK A          39.197   0.229   7.243  0.00  0.00     0.217 HD
ENDBRANCH   8  24
BRANCH  10  26
ATOM     26  O5  UNK A          40.774  -3.347  10.781  0.00  0.00    -0.361 OA
ATOM     27  H8  UNK A          40.432  -3.117  11.662  0.00  0.00     0.217 HD
ENDBRANCH  10  26
TORSDOF 6
ENDMDL
MODEL 9
REMARK VINA RESULT:      -5.7      5.913      9.354
REMARK  6 active torsions:
REMARK  status: ('A' for Active; 'I' for Inactive)
REMARK    1  A    between atoms: O2_2  and  C5_12 
REMARK    2  A    between atoms: O3_3  and  C7_14 
REMARK    3  A    between atoms: O5_5  and  C9_16 
REMARK    4  A    between atoms: O6_6  and  C13_20 
REMARK    5  A    between atoms: O7_7  and  C15_22 
REMARK    6  A    between atoms: C3_10  and  C4_11 
ROOT
ATOM      1  O1  UNK A          38.769  -3.939   6.470  0.00  0.00    -0.306 OA
ATOM      2  O4  UNK A          35.361  -1.842   7.240  0.00  0.00    -0.284 OA
ATOM      3  C1  UNK A          37.715  -1.941   7.355  0.00  0.00     0.084 A 
ATOM      4  C2  UNK A          38.842  -2.708   7.066  0.00  0.00     0.096 A 
ATOM      5  C3  UNK A          37.522  -4.436   6.126  0.00  0.00     0.123 A 
ATOM      6  C5  UNK A          36.358  -3.801   6.357  0.00  0.00     0.152 A 
ATOM      7  C6  UNK A          36.387  -2.468   7.006  0.00  0.00     0.223 A 
ATOM      8  C7  UNK A          37.850  -0.692   7.967  0.00  0.00     0.085 A 
ATOM      9  C8  UNK A          40.112  -2.231   7.391  0.00  0.00     0.075 A 
ATOM     10  C9  UNK A          40.251  -0.984   8.001  0.00  0.00     0.071 A 
ATOM     11  C11 UNK A          39.121  -0.217   8.289  0.00  0.00     0.074 A 
ENDROOT
BRANCH   5  12
ATOM     12  C4  UNK A          37.586  -5.765   5.493  0.00  0.00     0.004 A 
ATOM     13  C10 UNK A          37.973  -6.878   6.240  0.00  0.00     0.053 A 
ATOM     14  C13 UNK A          38.032  -8.135   5.641  0.00  0.00     0.099 A 
ATOM     15  C15 UNK A          37.707  -8.281   4.292  0.00  0.00     0.098 A 
ATOM     16  C14 UNK A          37.320  -7.169   3.544  0.00  0.00     0.040 A 
ATOM     17  C12 UNK A          37.259  -5.911   4.144  0.00  0.00     0.017 A 
BRANCH  14  18
ATOM     18  O6  UNK A          38.413  -9.214   6.380  0.00  0.00    -0.358 OA
ATOM     19  H9  UNK A          37.799  -9.950   6.227  0.00  0.00     0.217 HD
ENDBRANCH  14  18
BRANCH  15  20
ATOM     20  O7  UNK A          37.760  -9.504   3.695  0.00  0.00    -0.358 OA
ATOM     21  H10 UNK A          38.663  -9.680   3.388  0.00  0.00     0.217 HD
ENDBRANCH  15  20
ENDBRANCH   5  12
BRANCH   6  22
ATOM     22  O2  UNK A          35.131  -4.338   6.033  0.00  0.00    -0.355 OA
ATOM     23  H6  UNK A          35.154  -5.303   6.138  0.00  0.00     0.218 HD
ENDBRANCH   6  22
BRANCH   8  24
ATOM     24  O3  UNK A          36.781   0.097   8.270  0.00  0.00    -0.360 OA
ATOM     25  H7  UNK A          36.826   0.391   9.192  0.00  0.00     0.217 HD
ENDBRANCH   8  24
BRANCH  10  26
ATOM     26  O5  UNK A          41.488  -0.517   8.318  0.00  0.00    -0.361 OA
ATOM     27  H8  UNK A          42.158  -1.121   7.954  0.00  0.00     0.217 HD
ENDBRANCH  10  26
TORSDOF 6
ENDMDL
MODEL 10
REMARK VINA RESULT:      -5.7      2.196      6.689
REMARK  6 active torsions:
REMARK  status: ('A' for Active; 'I' for Inactive)
REMARK    1  A    between atoms: O2_2  and  C5_12 
REMARK    2  A    between atoms: O3_3  and  C7_14 
REMARK    3  A    between atoms: O5_5  and  C9_16 
REMARK    4  A    between atoms: O6_6  and  C13_20 
REMARK    5  A    between atoms: O7_7  and  C15_22 
REMARK    6  A    between atoms: C3_10  and  C4_11 
ROOT
ATOM      1  O1  UNK A          41.488   3.053   8.735  0.00  0.00    -0.306 OA
ATOM      2  O4  UNK A          43.504  -0.377   9.616  0.00  0.00    -0.284 OA
ATOM      3  C1  UNK A          41.565   0.628   8.725  0.00  0.00     0.084 A 
ATOM      4  C2  UNK A          40.928   1.836   8.450  0.00  0.00     0.096 A 
ATOM      5  C3  UNK A          42.749   3.083   9.310  0.00  0.00     0.123 A 
ATOM      6  C5  UNK A          43.466   1.991   9.633  0.00  0.00     0.152 A 
ATOM      7  C6  UNK A          42.898   0.652   9.347  0.00  0.00     0.223 A 
ATOM      8  C7  UNK A          40.944  -0.584   8.412  0.00  0.00     0.085 A 
ATOM      9  C8  UNK A          39.662   1.839   7.862  0.00  0.00     0.075 A 
ATOM     10  C9  UNK A          39.039   0.631   7.548  0.00  0.00     0.071 A 
ATOM     11  C11 UNK A          39.680  -0.578   7.824  0.00  0.00     0.074 A 
ENDROOT
BRANCH   5  12
ATOM     12  C4  UNK A          43.233   4.451   9.564  0.00  0.00     0.004 A 
ATOM     13  C10 UNK A          42.556   5.277  10.461  0.00  0.00     0.053 A 
ATOM     14  C13 UNK A          43.015   6.571  10.702  0.00  0.00     0.099 A 
ATOM     15  C15 UNK A          44.152   7.042  10.044  0.00  0.00     0.098 A 
ATOM     16  C14 UNK A          44.830   6.217   9.147  0.00  0.00     0.040 A 
ATOM     17  C12 UNK A          44.371   4.921   8.906  0.00  0.00     0.017 A 
BRANCH  14  18
ATOM     18  O6  UNK A          42.345   7.369  11.580  0.00  0.00    -0.358 OA
ATOM     19  H9  UNK A          42.936   8.066  11.908  0.00  0.00     0.217 HD
ENDBRANCH  14  18
BRANCH  15  20
ATOM     20  O7  UNK A          44.611   8.304  10.272  0.00  0.00    -0.358 OA
ATOM     21  H10 UNK A          43.915   8.948  10.067  0.00  0.00     0.217 HD
ENDBRANCH  15  20
ENDBRANCH   5  12
BRANCH   6  22
ATOM     22  O2  UNK A          44.705   2.055  10.234  0.00  0.00    -0.355 OA
ATOM     23  H6  UNK A          45.402   1.967   9.564  0.00  0.00     0.218 HD
ENDBRANCH   6  22
BRANCH   8  24
ATOM     24  O3  UNK A          41.524  -1.792   8.660  0.00  0.00    -0.360 OA
ATOM     25  H7  UNK A          42.195  -1.992   7.989  0.00  0.00     0.217 HD
ENDBRANCH   8  24
BRANCH  10  26
ATOM     26  O5  UNK A          37.806   0.631   6.975  0.00  0.00    -0.361 OA
ATOM     27  H8  UNK A          37.173   0.215   7.585  0.00  0.00     0.217 HD
ENDBRANCH  10  26
TORSDOF 6
ENDMDL
MODEL 11
REMARK VINA RESULT:      -5.7      3.369      5.144
REMARK  6 active torsions:
REMARK  status: ('A' for Active; 'I' for Inactive)
REMARK    1  A    between atoms: O2_2  and  C5_12 
REMARK    2  A    between atoms: O3_3  and  C7_14 
REMARK    3  A    between atoms: O5_5  and  C9_16 
REMARK    4  A    between atoms: O6_6  and  C13_20 
REMARK    5  A    between atoms: O7_7  and  C15_22 
REMARK    6  A    between atoms: C3_10  and  C4_11 
ROOT
ATOM      1  O1  UNK A          40.822  -1.426   8.578  0.00  0.00    -0.306 OA
ATOM      2  O4  UNK A          39.210   2.278   8.035  0.00  0.00    -0.284 OA
ATOM      3  C1  UNK A          41.061   0.985   8.719  0.00  0.00     0.084 A 
ATOM      4  C2  UNK A          41.553  -0.308   8.882  0.00  0.00     0.096 A 
ATOM      5  C3  UNK A          39.541  -1.262   8.072  0.00  0.00     0.123 A 
ATOM      6  C5  UNK A          38.947  -0.071   7.875  0.00  0.00     0.152 A 
ATOM      7  C6  UNK A          39.698   1.166   8.195  0.00  0.00     0.223 A 
ATOM      8  C7  UNK A          41.853   2.088   9.048  0.00  0.00     0.085 A 
ATOM      9  C8  UNK A          42.842  -0.506   9.380  0.00  0.00     0.075 A 
ATOM     10  C9  UNK A          43.636   0.593   9.709  0.00  0.00     0.071 A 
ATOM     11  C11 UNK A          43.141   1.887   9.544  0.00  0.00     0.074 A 
ENDROOT
BRANCH   5  12
ATOM     12  C4  UNK A          38.867  -2.540   7.787  0.00  0.00     0.004 A 
ATOM     13  C10 UNK A          38.911  -3.082   6.502  0.00  0.00     0.053 A 
ATOM     14  C13 UNK A          38.274  -4.293   6.233  0.00  0.00     0.099 A 
ATOM     15  C15 UNK A          37.590  -4.962   7.249  0.00  0.00     0.098 A 
ATOM     16  C14 UNK A          37.545  -4.421   8.533  0.00  0.00     0.040 A 
ATOM     17  C12 UNK A          38.184  -3.210   8.803  0.00  0.00     0.017 A 
BRANCH  14  18
ATOM     18  O6  UNK A          38.323  -4.811   4.975  0.00  0.00    -0.358 OA
ATOM     19  H9  UNK A          38.972  -5.533   4.941  0.00  0.00     0.217 HD
ENDBRANCH  14  18
BRANCH  15  20
ATOM     20  O7  UNK A          36.965  -6.146   6.998  0.00  0.00    -0.358 OA
ATOM     21  H10 UNK A          36.231  -6.268   7.621  0.00  0.00     0.217 HD
ENDBRANCH  15  20
ENDBRANCH   5  12
BRANCH   6  22
ATOM     22  O2  UNK A          37.659   0.058   7.401  0.00  0.00    -0.355 OA
ATOM     23  H6  UNK A          37.202   0.771   7.876  0.00  0.00     0.218 HD
ENDBRANCH   6  22
BRANCH   8  24
ATOM     24  O3  UNK A          41.419   3.372   8.907  0.00  0.00    -0.360 OA
ATOM     25  H7  UNK A          41.557   3.870   9.727  0.00  0.00     0.217 HD
ENDBRANCH   8  24
BRANCH  10  26
ATOM     26  O5  UNK A          44.893   0.402  10.193  0.00  0.00    -0.361 OA
ATOM     27  H8  UNK A          45.470   0.110   9.468  0.00  0.00     0.217 HD
ENDBRANCH  10  26
TORSDOF 6
ENDMDL
MODEL 12
REMARK VINA RESULT:      -5.6      9.562     13.327
REMARK  6 active torsions:
REMARK  status: ('A' for Active; 'I' for Inactive)
REMARK    1  A    between atoms: O2_2  and  C5_12 
REMARK    2  A    between atoms: O3_3  and  C7_14 
REMARK    3  A    between atoms: O5_5  and  C9_16 
REMARK    4  A    between atoms: O6_6  and  C13_20 
REMARK    5  A    between atoms: O7_7  and  C15_22 
REMARK    6  A    between atoms: C3_10  and  C4_11 
ROOT
ATOM      1  O1  UNK A          37.955  -8.373   5.914  0.00  0.00    -0.306 OA
ATOM      2  O4  UNK A          37.321 -10.032   2.246  0.00  0.00    -0.284 OA
ATOM      3  C1  UNK A          38.161 -10.286   4.434  0.00  0.00     0.084 A 
ATOM      4  C2  UNK A          38.350  -9.662   5.666  0.00  0.00     0.096 A 
ATOM      5  C3  UNK A          37.329  -7.666   4.899  0.00  0.00     0.123 A 
ATOM      6  C5  UNK A          37.094  -8.149   3.665  0.00  0.00     0.152 A 
ATOM      7  C6  UNK A          37.509  -9.537   3.349  0.00  0.00     0.223 A 
ATOM      8  C7  UNK A          38.585 -11.603   4.239  0.00  0.00     0.085 A 
ATOM      9  C8  UNK A          38.968 -10.351   6.710  0.00  0.00     0.075 A 
ATOM     10  C9  UNK A          39.393 -11.665   6.519  0.00  0.00     0.071 A 
ATOM     11  C11 UNK A          39.202 -12.289   5.285  0.00  0.00     0.074 A 
ENDROOT
BRANCH   5  12
ATOM     12  C4  UNK A          36.956  -6.297   5.297  0.00  0.00     0.004 A 
ATOM     13  C10 UNK A          37.933  -5.304   5.382  0.00  0.00     0.053 A 
ATOM     14  C13 UNK A          37.580  -4.008   5.758  0.00  0.00     0.099 A 
ATOM     15  C15 UNK A          36.249  -3.705   6.050  0.00  0.00     0.098 A 
ATOM     16  C14 UNK A          35.273  -4.697   5.965  0.00  0.00     0.040 A 
ATOM     17  C12 UNK A          35.626  -5.993   5.589  0.00  0.00     0.017 A 
BRANCH  14  18
ATOM     18  O6  UNK A          38.541  -3.048   5.839  0.00  0.00    -0.358 OA
ATOM     19  H9  UNK A          38.641  -2.609   4.978  0.00  0.00     0.217 HD
ENDBRANCH  14  18
BRANCH  15  20
ATOM     20  O7  UNK A          35.892  -2.442   6.417  0.00  0.00    -0.358 OA
ATOM     21  H10 UNK A          34.978  -2.442   6.743  0.00  0.00     0.217 HD
ENDBRANCH  15  20
ENDBRANCH   5  12
BRANCH   6  22
ATOM     22  O2  UNK A          36.498  -7.408   2.668  0.00  0.00    -0.355 OA
ATOM     23  H6  UNK A          35.934  -6.721   3.059  0.00  0.00     0.218 HD
ENDBRANCH   6  22
BRANCH   8  24
ATOM     24  O3  UNK A          38.424 -12.259   3.056  0.00  0.00    -0.360 OA
ATOM     25  H7  UNK A          38.216 -13.192   3.210  0.00  0.00     0.217 HD
ENDBRANCH   8  24
BRANCH  10  26
ATOM     26  O5  UNK A          39.996 -12.339   7.535  0.00  0.00    -0.361 OA
ATOM     27  H8  UNK A          39.436 -12.281   8.329  0.00  0.00     0.217 HD
ENDBRANCH  10  26
TORSDOF 6
ENDMDL
MODEL 13
REMARK VINA RESULT:      -5.6      2.339      2.879
REMARK  6 active torsions:
REMARK  status: ('A' for Active; 'I' for Inactive)
REMARK    1  A    between atoms: O2_2  and  C5_12 
REMARK    2  A    between atoms: O3_3  and  C7_14 
REMARK    3  A    between atoms: O5_5  and  C9_16 
REMARK    4  A    between atoms: O6_6  and  C13_20 
REMARK    5  A    between atoms: O7_7  and  C15_22 
REMARK    6  A    between atoms: C3_10  and  C4_11 
ROOT
ATOM      1  O1  UNK A          44.380   0.880   8.207  0.00  0.00    -0.306 OA
ATOM      2  O4  UNK A          44.482   3.847  10.999  0.00  0.00    -0.284 OA
ATOM      3  C1  UNK A          45.473   2.852   9.104  0.00  0.00     0.084 A 
ATOM      4  C2  UNK A          45.383   1.813   8.180  0.00  0.00     0.096 A 
ATOM      5  C3  UNK A          43.406   0.982   9.188  0.00  0.00     0.123 A 
ATOM      6  C5  UNK A          43.383   1.930  10.143  0.00  0.00     0.152 A 
ATOM      7  C6  UNK A          44.452   2.959  10.157  0.00  0.00     0.223 A 
ATOM      8  C7  UNK A          46.520   3.774   9.028  0.00  0.00     0.085 A 
ATOM      9  C8  UNK A          46.342   1.689   7.173  0.00  0.00     0.075 A 
ATOM     10  C9  UNK A          47.388   2.608   7.094  0.00  0.00     0.071 A 
ATOM     11  C11 UNK A          47.477   3.648   8.021  0.00  0.00     0.074 A 
ENDROOT
BRANCH   5  12
ATOM     12  C4  UNK A          42.390  -0.081   9.104  0.00  0.00     0.004 A 
ATOM     13  C10 UNK A          42.576  -1.282   9.787  0.00  0.00     0.053 A 
ATOM     14  C13 UNK A          41.613  -2.287   9.708  0.00  0.00     0.099 A 
ATOM     15  C15 UNK A          40.462  -2.092   8.943  0.00  0.00     0.098 A 
ATOM     16  C14 UNK A          40.275  -0.891   8.259  0.00  0.00     0.040 A 
ATOM     17  C12 UNK A          41.239   0.115   8.339  0.00  0.00     0.017 A 
BRANCH  14  18
ATOM     18  O6  UNK A          41.806  -3.457  10.378  0.00  0.00    -0.358 OA
ATOM     19  H9  UNK A          42.638  -3.867  10.089  0.00  0.00     0.217 HD
ENDBRANCH  14  18
BRANCH  15  20
ATOM     20  O7  UNK A          39.514  -3.066   8.859  0.00  0.00    -0.358 OA
ATOM     21  H10 UNK A          39.870  -3.829   8.377  0.00  0.00     0.217 HD
ENDBRANCH  15  20
ENDBRANCH   5  12
BRANCH   6  22
ATOM     22  O2  UNK A          42.419   1.985  11.126  0.00  0.00    -0.355 OA
ATOM     23  H6  UNK A          42.583   2.745  11.708  0.00  0.00     0.218 HD
ENDBRANCH   6  22
BRANCH   8  24
ATOM     24  O3  UNK A          46.655   4.807   9.907  0.00  0.00    -0.360 OA
ATOM     25  H7  UNK A          47.287   4.579  10.605  0.00  0.00     0.217 HD
ENDBRANCH   8  24
BRANCH  10  26
ATOM     26  O5  UNK A          48.324   2.489   6.114  0.00  0.00    -0.361 OA
ATOM     27  H8  UNK A          47.953   1.961   5.386  0.00  0.00     0.217 HD
ENDBRANCH  10  26
TORSDOF 6
ENDMDL
MODEL 14
REMARK VINA RESULT:      -5.5      2.084      2.829
REMARK  6 active torsions:
REMARK  status: ('A' for Active; 'I' for Inactive)
REMARK    1  A    between atoms: O2_2  and  C5_12 
REMARK    2  A    between atoms: O3_3  and  C7_14 
REMARK    3  A    between atoms: O5_5  and  C9_16 
REMARK    4  A    between atoms: O6_6  and  C13_20 
REMARK    5  A    between atoms: O7_7  and  C15_22 
REMARK    6  A    between atoms: C3_10  and  C4_11 
ROOT
ATOM      1  O1  UNK A          42.329   0.299   8.232  0.00  0.00    -0.306 OA
ATOM      2  O4  UNK A          40.972   3.804   9.808  0.00  0.00    -0.284 OA
ATOM      3  C1  UNK A          42.771   2.597   8.876  0.00  0.00     0.084 A 
ATOM      4  C2  UNK A          43.174   1.372   8.348  0.00  0.00     0.096 A 
ATOM      5  C3  UNK A          41.014   0.444   8.647  0.00  0.00     0.123 A 
ATOM      6  C5  UNK A          40.503   1.568   9.181  0.00  0.00     0.152 A 
ATOM      7  C6  UNK A          41.381   2.753   9.331  0.00  0.00     0.223 A 
ATOM      8  C7  UNK A          43.677   3.656   8.971  0.00  0.00     0.085 A 
ATOM      9  C8  UNK A          44.488   1.198   7.912  0.00  0.00     0.075 A 
ATOM     10  C9  UNK A          45.396   2.253   8.005  0.00  0.00     0.071 A 
ATOM     11  C11 UNK A          44.990   3.480   8.534  0.00  0.00     0.074 A 
ENDROOT
BRANCH   5  12
ATOM     12  C4  UNK A          40.216  -0.782   8.468  0.00  0.00     0.004 A 
ATOM     13  C10 UNK A          39.583  -1.032   7.250  0.00  0.00     0.053 A 
ATOM     14  C13 UNK A          38.830  -2.192   7.080  0.00  0.00     0.099 A 
ATOM     15  C15 UNK A          38.706  -3.103   8.130  0.00  0.00     0.098 A 
ATOM     16  C14 UNK A          39.338  -2.854   9.348  0.00  0.00     0.040 A 
ATOM     17  C12 UNK A          40.093  -1.693   9.517  0.00  0.00     0.017 A 
BRANCH  14  18
ATOM     18  O6  UNK A          38.215  -2.425   5.887  0.00  0.00    -0.358 OA
ATOM     19  H9  UNK A          38.758  -2.072   5.164  0.00  0.00     0.217 HD
ENDBRANCH  14  18
BRANCH  15  20
ATOM     20  O7  UNK A          37.973  -4.241   7.976  0.00  0.00    -0.358 OA
ATOM     21  H10 UNK A          37.027  -4.029   8.009  0.00  0.00     0.217 HD
ENDBRANCH  15  20
ENDBRANCH   5  12
BRANCH   6  22
ATOM     22  O2  UNK A          39.198   1.669   9.615  0.00  0.00    -0.355 OA
ATOM     23  H6  UNK A          38.810   0.783   9.704  0.00  0.00     0.218 HD
ENDBRANCH   6  22
BRANCH   8  24
ATOM     24  O3  UNK A          43.335   4.873   9.479  0.00  0.00    -0.360 OA
ATOM     25  H7  UNK A          44.033   5.522   9.307  0.00  0.00     0.217 HD
ENDBRANCH   8  24
BRANCH  10  26
ATOM     26  O5  UNK A          46.677   2.086   7.580  0.00  0.00    -0.361 OA
ATOM     27  H8  UNK A          47.175   1.600   8.260  0.00  0.00     0.217 HD
ENDBRANCH  10  26
TORSDOF 6
ENDMDL
MODEL 15
REMARK VINA RESULT:      -5.5      2.646      6.831
REMARK  6 active torsions:
REMARK  status: ('A' for Active; 'I' for Inactive)
REMARK    1  A    between atoms: O2_2  and  C5_12 
REMARK    2  A    between atoms: O3_3  and  C7_14 
REMARK    3  A    between atoms: O5_5  and  C9_16 
REMARK    4  A    between atoms: O6_6  and  C13_20 
REMARK    5  A    between atoms: O7_7  and  C15_22 
REMARK    6  A    between atoms: C3_10  and  C4_11 
ROOT
ATOM      1  O1  UNK A          41.968   1.126  10.588  0.00  0.00    -0.306 OA
ATOM      2  O4  UNK A          39.608  -0.196   7.540  0.00  0.00    -0.284 OA
ATOM      3  C1  UNK A          40.521  -0.597   9.677  0.00  0.00     0.084 A 
ATOM      4  C2  UNK A          41.341  -0.089  10.683  0.00  0.00     0.096 A 
ATOM      5  C3  UNK A          41.765   1.888   9.448  0.00  0.00     0.123 A 
ATOM      6  C5  UNK A          41.006   1.510   8.403  0.00  0.00     0.152 A 
ATOM      7  C6  UNK A          40.313   0.201   8.458  0.00  0.00     0.223 A 
ATOM      8  C7  UNK A          39.910  -1.844   9.828  0.00  0.00     0.085 A 
ATOM      9  C8  UNK A          41.557  -0.828  11.847  0.00  0.00     0.075 A 
ATOM     10  C9  UNK A          40.948  -2.074  12.001  0.00  0.00     0.071 A 
ATOM     11  C11 UNK A          40.126  -2.580  10.993  0.00  0.00     0.074 A 
ENDROOT
BRANCH   5  12
ATOM     12  C4  UNK A          42.493   3.168   9.475  0.00  0.00     0.004 A 
ATOM     13  C10 UNK A          41.889   4.305  10.014  0.00  0.00     0.053 A 
ATOM     14  C13 UNK A          42.579   5.516  10.041  0.00  0.00     0.099 A 
ATOM     15  C15 UNK A          43.874   5.592   9.526  0.00  0.00     0.098 A 
ATOM     16  C14 UNK A          44.479   4.457   8.987  0.00  0.00     0.040 A 
ATOM     17  C12 UNK A          43.789   3.245   8.961  0.00  0.00     0.017 A 
BRANCH  14  18
ATOM     18  O6  UNK A          41.979   6.619  10.568  0.00  0.00    -0.358 OA
ATOM     19  H9  UNK A          42.539   6.995  11.266  0.00  0.00     0.217 HD
ENDBRANCH  14  18
BRANCH  15  20
ATOM     20  O7  UNK A          44.559   6.770   9.548  0.00  0.00    -0.358 OA
ATOM     21  H10 UNK A          45.483   6.607   9.793  0.00  0.00     0.217 HD
ENDBRANCH  15  20
ENDBRANCH   5  12
BRANCH   6  22
ATOM     22  O2  UNK A          40.851   2.278   7.269  0.00  0.00    -0.355 OA
ATOM     23  H6  UNK A          41.075   3.202   7.463  0.00  0.00     0.218 HD
ENDBRANCH   6  22
BRANCH   8  24
ATOM     24  O3  UNK A          39.100  -2.385   8.875  0.00  0.00    -0.360 OA
ATOM     25  H7  UNK A          38.620  -1.689   8.401  0.00  0.00     0.217 HD
ENDBRANCH   8  24
BRANCH  10  26
ATOM     26  O5  UNK A          41.156  -2.795  13.135  0.00  0.00    -0.361 OA
ATOM     27  H8  UNK A          41.775  -2.312  13.709  0.00  0.00     0.217 HD
ENDBRANCH  10  26
TORSDOF 6
ENDMDL
MODEL 16
REMARK VINA RESULT:      -5.5      2.214      3.153
REMARK  6 active torsions:
REMARK  status: ('A' for Active; 'I' for Inactive)
REMARK    1  A    between atoms: O2_2  and  C5_12 
REMARK    2  A    between atoms: O3_3  and  C7_14 
REMARK    3  A    between atoms: O5_5  and  C9_16 
REMARK    4  A    between atoms: O6_6  and  C13_20 
REMARK    5  A    between atoms: O7_7  and  C15_22 
REMARK    6  A    between atoms: C3_10  and  C4_11 
ROOT
ATOM      1  O1  UNK A          44.994   2.252   7.826  0.00  0.00    -0.306 OA
ATOM      2  O4  UNK A          47.020   0.780  11.041  0.00  0.00    -0.284 OA
ATOM      3  C1  UNK A          47.114   1.788   8.911  0.00  0.00     0.084 A 
ATOM      4  C2  UNK A          46.363   2.274   7.843  0.00  0.00     0.096 A 
ATOM      5  C3  UNK A          44.327   1.735   8.926  0.00  0.00     0.123 A 
ATOM      6  C5  UNK A          44.932   1.228  10.016  0.00  0.00     0.152 A 
ATOM      7  C6  UNK A          46.413   1.227  10.076  0.00  0.00     0.223 A 
ATOM      8  C7  UNK A          48.510   1.836   8.872  0.00  0.00     0.085 A 
ATOM      9  C8  UNK A          47.006   2.810   6.725  0.00  0.00     0.075 A 
ATOM     10  C9  UNK A          48.399   2.860   6.683  0.00  0.00     0.071 A 
ATOM     11  C11 UNK A          49.149   2.373   7.755  0.00  0.00     0.074 A 
ENDROOT
BRANCH   5  12
ATOM     12  C4  UNK A          42.861   1.771   8.779  0.00  0.00     0.004 A 
ATOM     13  C10 UNK A          42.146   2.901   9.177  0.00  0.00     0.053 A 
ATOM     14  C13 UNK A          40.759   2.935   9.037  0.00  0.00     0.099 A 
ATOM     15  C15 UNK A          40.086   1.837   8.500  0.00  0.00     0.098 A 
ATOM     16  C14 UNK A          40.800   0.707   8.102  0.00  0.00     0.040 A 
ATOM     17  C12 UNK A          42.187   0.673   8.242  0.00  0.00     0.017 A 
BRANCH  14  18
ATOM     18  O6  UNK A          40.072   4.043   9.430  0.00  0.00    -0.358 OA
ATOM     19  H9  UNK A          39.864   3.982  10.376  0.00  0.00     0.217 HD
ENDBRANCH  14  18
BRANCH  15  20
ATOM     20  O7  UNK A          38.731   1.859   8.357  0.00  0.00    -0.358 OA
ATOM     21  H10 UNK A          38.422   0.998   8.034  0.00  0.00     0.217 HD
ENDBRANCH  15  20
ENDBRANCH   5  12
BRANCH   6  22
ATOM     22  O2  UNK A          44.240   0.691  11.080  0.00  0.00    -0.355 OA
ATOM     23  H6  UNK A          44.404   1.217  11.879  0.00  0.00     0.218 HD
ENDBRANCH   6  22
BRANCH   8  24
ATOM     24  O3  UNK A          49.290   1.375   9.890  0.00  0.00    -0.360 OA
ATOM     25  H7  UNK A          50.028   1.981  10.054  0.00  0.00     0.217 HD
ENDBRANCH   8  24
BRANCH  10  26
ATOM     26  O5  UNK A          49.027   3.382   5.595  0.00  0.00    -0.361 OA
ATOM     27  H8  UNK A          49.505   4.186   5.861  0.00  0.00     0.217 HD
ENDBRANCH  10  26
TORSDOF 6
ENDMDL
MODEL 17
REMARK VINA RESULT:      -5.5      2.527      3.632
REMARK  6 active torsions:
REMARK  status: ('A' for Active; 'I' for Inactive)
REMARK    1  A    between atoms: O2_2  and  C5_12 
REMARK    2  A    between atoms: O3_3  and  C7_14 
REMARK    3  A    between atoms: O5_5  and  C9_16 
REMARK    4  A    between atoms: O6_6  and  C13_20 
REMARK    5  A    between atoms: O7_7  and  C15_22 
REMARK    6  A    between atoms: C3_10  and  C4_11 
ROOT
ATOM      1  O1  UNK A          43.147   1.226   9.927  0.00  0.00    -0.306 OA
ATOM      2  O4  UNK A          46.358   1.559   7.440  0.00  0.00    -0.284 OA
ATOM      3  C1  UNK A          45.550   1.421   9.651  0.00  0.00     0.084 A 
ATOM      4  C2  UNK A          44.412   1.307  10.447  0.00  0.00     0.096 A 
ATOM      5  C3  UNK A          42.995   1.244   8.550  0.00  0.00     0.123 A 
ATOM      6  C5  UNK A          44.009   1.358   7.672  0.00  0.00     0.152 A 
ATOM      7  C6  UNK A          45.395   1.455   8.189  0.00  0.00     0.223 A 
ATOM      8  C7  UNK A          46.815   1.503  10.238  0.00  0.00     0.085 A 
ATOM      9  C8  UNK A          44.533   1.276  11.837  0.00  0.00     0.075 A 
ATOM     10  C9  UNK A          45.795   1.357  12.427  0.00  0.00     0.071 A 
ATOM     11  C11 UNK A          46.934   1.470  11.627  0.00  0.00     0.074 A 
ENDROOT
BRANCH   5  12
ATOM     12  C4  UNK A          41.587   1.149   8.125  0.00  0.00     0.004 A 
ATOM     13  C10 UNK A          40.921  -0.076   8.182  0.00  0.00     0.053 A 
ATOM     14  C13 UNK A          39.589  -0.165   7.781  0.00  0.00     0.099 A 
ATOM     15  C15 UNK A          38.922   0.970   7.320  0.00  0.00     0.098 A 
ATOM     16  C14 UNK A          39.587   2.195   7.262  0.00  0.00     0.040 A 
ATOM     17  C12 UNK A          40.920   2.284   7.665  0.00  0.00     0.017 A 
BRANCH  14  18
ATOM     18  O6  UNK A          38.950  -1.366   7.840  0.00  0.00    -0.358 OA
ATOM     19  H9  UNK A          38.769  -1.597   8.766  0.00  0.00     0.217 HD
ENDBRANCH  14  18
BRANCH  15  20
ATOM     20  O7  UNK A          37.619   0.896   6.927  0.00  0.00    -0.358 OA
ATOM     21  H10 UNK A          37.515   1.317   6.059  0.00  0.00     0.217 HD
ENDBRANCH  15  20
ENDBRANCH   5  12
BRANCH   6  22
ATOM     22  O2  UNK A          43.821   1.406   6.308  0.00  0.00    -0.355 OA
ATOM     23  H6  UNK A          44.608   1.780   5.879  0.00  0.00     0.218 HD
ENDBRANCH   6  22
BRANCH   8  24
ATOM     24  O3  UNK A          47.959   1.615   9.505  0.00  0.00    -0.360 OA
ATOM     25  H7  UNK A          47.758   1.605   8.557  0.00  0.00     0.217 HD
ENDBRANCH   8  24
BRANCH  10  26
ATOM     26  O5  UNK A          45.915   1.326  13.781  0.00  0.00    -0.361 OA
ATOM     27  H8  UNK A          46.563   1.998  14.056  0.00  0.00     0.217 HD
ENDBRANCH  10  26
TORSDOF 6
ENDMDL
MODEL 18
REMARK VINA RESULT:      -5.5      2.654      7.480
REMARK  6 active torsions:
REMARK  status: ('A' for Active; 'I' for Inactive)
REMARK    1  A    between atoms: O2_2  and  C5_12 
REMARK    2  A    between atoms: O3_3  and  C7_14 
REMARK    3  A    between atoms: O5_5  and  C9_16 
REMARK    4  A    between atoms: O6_6  and  C13_20 
REMARK    5  A    between atoms: O7_7  and  C15_22 
REMARK    6  A    between atoms: C3_10  and  C4_11 
ROOT
ATOM      1  O1  UNK A          40.741  -1.210   7.683  0.00  0.00    -0.306 OA
ATOM      2  O4  UNK A          37.617   0.697   9.475  0.00  0.00    -0.284 OA
ATOM      3  C1  UNK A          38.352  -1.057   8.079  0.00  0.00     0.084 A 
ATOM      4  C2  UNK A          39.462  -1.663   7.494  0.00  0.00     0.096 A 
ATOM      5  C3  UNK A          40.940  -0.110   8.502  0.00  0.00     0.123 A 
ATOM      6  C5  UNK A          39.955   0.570   9.118  0.00  0.00     0.152 A 
ATOM      7  C6  UNK A          38.554   0.120   8.939  0.00  0.00     0.223 A 
ATOM      8  C7  UNK A          37.069  -1.562   7.850  0.00  0.00     0.085 A 
ATOM      9  C8  UNK A          39.295  -2.779   6.673  0.00  0.00     0.075 A 
ATOM     10  C9  UNK A          38.016  -3.287   6.442  0.00  0.00     0.071 A 
ATOM     11  C11 UNK A          36.906  -2.678   7.030  0.00  0.00     0.074 A 
ENDROOT
BRANCH   5  12
ATOM     12  C4  UNK A          42.358   0.271   8.619  0.00  0.00     0.004 A 
ATOM     13  C10 UNK A          42.935   1.118   7.672  0.00  0.00     0.053 A 
ATOM     14  C13 UNK A          44.277   1.479   7.785  0.00  0.00     0.099 A 
ATOM     15  C15 UNK A          45.044   0.992   8.844  0.00  0.00     0.098 A 
ATOM     16  C14 UNK A          44.468   0.146   9.791  0.00  0.00     0.040 A 
ATOM     17  C12 UNK A          43.125  -0.215   9.679  0.00  0.00     0.017 A 
BRANCH  14  18
ATOM     18  O6  UNK A          44.830   2.305   6.853  0.00  0.00    -0.358 OA
ATOM     19  H9  UNK A          44.997   1.811   6.034  0.00  0.00     0.217 HD
ENDBRANCH  14  18
BRANCH  15  20
ATOM     20  O7  UNK A          46.356   1.340   8.965  0.00  0.00    -0.358 OA
ATOM     21  H10 UNK A          46.469   2.276   8.737  0.00  0.00     0.217 HD
ENDBRANCH  15  20
ENDBRANCH   5  12
BRANCH   6  22
ATOM     22  O2  UNK A          40.184   1.682   9.900  0.00  0.00    -0.355 OA
ATOM     23  H6  UNK A          39.796   1.551  10.781  0.00  0.00     0.218 HD
ENDBRANCH   6  22
BRANCH   8  24
ATOM     24  O3  UNK A          35.952  -1.007   8.398  0.00  0.00    -0.360 OA
ATOM     25  H7  UNK A          35.830  -0.101   8.076  0.00  0.00     0.217 HD
ENDBRANCH   8  24
BRANCH  10  26
ATOM     26  O5  UNK A          37.852  -4.375   5.642  0.00  0.00    -0.361 OA
ATOM     27  H8  UNK A          37.372  -4.107   4.839  0.00  0.00     0.217 HD
ENDBRANCH  10  26
TORSDOF 6
ENDMDL
MODEL 19
REMARK VINA RESULT:      -5.5      6.790      9.909
REMARK  6 active torsions:
REMARK  status: ('A' for Active; 'I' for Inactive)
REMARK    1  A    between atoms: O2_2  and  C5_12 
REMARK    2  A    between atoms: O3_3  and  C7_14 
REMARK    3  A    between atoms: O5_5  and  C9_16 
REMARK    4  A    between atoms: O6_6  and  C13_20 
REMARK    5  A    between atoms: O7_7  and  C15_22 
REMARK    6  A    between atoms: C3_10  and  C4_11 
ROOT
ATOM      1  O1  UNK A          36.225  -3.688   7.065  0.00  0.00    -0.306 OA
ATOM      2  O4  UNK A          39.267  -0.980   7.221  0.00  0.00    -0.284 OA
ATOM      3  C1  UNK A          37.042  -1.519   7.787  0.00  0.00     0.084 A 
ATOM      4  C2  UNK A          36.042  -2.486   7.698  0.00  0.00     0.096 A 
ATOM      5  C3  UNK A          37.462  -3.957   6.500  0.00  0.00     0.123 A 
ATOM      6  C5  UNK A          38.506  -3.107   6.510  0.00  0.00     0.152 A 
ATOM      7  C6  UNK A          38.353  -1.793   7.179  0.00  0.00     0.223 A 
ATOM      8  C7  UNK A          36.797  -0.311   8.444  0.00  0.00     0.085 A 
ATOM      9  C8  UNK A          34.789  -2.249   8.265  0.00  0.00     0.075 A 
ATOM     10  C9  UNK A          34.541  -1.043   8.922  0.00  0.00     0.071 A 
ATOM     11  C11 UNK A          35.544  -0.077   9.011  0.00  0.00     0.074 A 
ENDROOT
BRANCH   5  12
ATOM     12  C4  UNK A          37.524  -5.279   5.854  0.00  0.00     0.004 A 
ATOM     13  C10 UNK A          37.850  -6.410   6.604  0.00  0.00     0.053 A 
ATOM     14  C13 UNK A          37.907  -7.661   5.992  0.00  0.00     0.099 A 
ATOM     15  C15 UNK A          37.640  -7.783   4.628  0.00  0.00     0.098 A 
ATOM     16  C14 UNK A          37.314  -6.653   3.877  0.00  0.00     0.040 A 
ATOM     17  C12 UNK A          37.256  -5.401   4.490  0.00  0.00     0.017 A 
BRANCH  14  18
ATOM     18  O6  UNK A          38.227  -8.757   6.734  0.00  0.00    -0.358 OA
ATOM     19  H9  UNK A          38.125  -8.555   7.678  0.00  0.00     0.217 HD
ENDBRANCH  14  18
BRANCH  15  20
ATOM     20  O7  UNK A          37.691  -9.001   4.018  0.00  0.00    -0.358 OA
ATOM     21  H10 UNK A          38.013  -9.667   4.645  0.00  0.00     0.217 HD
ENDBRANCH  15  20
ENDBRANCH   5  12
BRANCH   6  22
ATOM     22  O2  UNK A          39.714  -3.392   5.910  0.00  0.00    -0.355 OA
ATOM     23  H6  UNK A          39.749  -4.333   5.669  0.00  0.00     0.218 HD
ENDBRANCH   6  22
BRANCH   8  24
ATOM     24  O3  UNK A          37.740   0.666   8.560  0.00  0.00    -0.360 OA
ATOM     25  H7  UNK A          37.511   1.427   8.004  0.00  0.00     0.217 HD
ENDBRANCH   8  24
BRANCH  10  26
ATOM     26  O5  UNK A          33.321  -0.810   9.476  0.00  0.00    -0.361 OA
ATOM     27  H8  UNK A          32.905  -1.662   9.693  0.00  0.00     0.217 HD
ENDBRANCH  10  26
TORSDOF 6
ENDMDL
MODEL 20
REMARK VINA RESULT:      -5.5      2.354      3.440
REMARK  6 active torsions:
REMARK  status: ('A' for Active; 'I' for Inactive)
REMARK    1  A    between atoms: O2_2  and  C5_12 
REMARK    2  A    between atoms: O3_3  and  C7_14 
REMARK    3  A    between atoms: O5_5  and  C9_16 
REMARK    4  A    between atoms: O6_6  and  C13_20 
REMARK    5  A    between atoms: O7_7  and  C15_22 
REMARK    6  A    between atoms: C3_10  and  C4_11 
ROOT
ATOM      1  O1  UNK A          44.279   1.022   9.339  0.00  0.00    -0.306 OA
ATOM      2  O4  UNK A          46.625   2.515   6.359  0.00  0.00    -0.284 OA
ATOM      3  C1  UNK A          46.494   1.589   8.524  0.00  0.00     0.084 A 
ATOM      4  C2  UNK A          45.637   1.090   9.504  0.00  0.00     0.096 A 
ATOM      5  C3  UNK A          43.735   1.455   8.139  0.00  0.00     0.123 A 
ATOM      6  C5  UNK A          44.449   1.964   7.118  0.00  0.00     0.152 A 
ATOM      7  C6  UNK A          45.923   2.062   7.254  0.00  0.00     0.223 A 
ATOM      8  C7  UNK A          47.872   1.635   8.749  0.00  0.00     0.085 A 
ATOM      9  C8  UNK A          46.155   0.638  10.718  0.00  0.00     0.075 A 
ATOM     10  C9  UNK A          47.530   0.682  10.947  0.00  0.00     0.071 A 
ATOM     11  C11 UNK A          48.387   1.181   9.964  0.00  0.00     0.074 A 
ENDROOT
BRANCH   5  12
ATOM     12  C4  UNK A          42.268   1.327   8.092  0.00  0.00     0.004 A 
ATOM     13  C10 UNK A          41.673   0.070   8.200  0.00  0.00     0.053 A 
ATOM     14  C13 UNK A          40.285  -0.051   8.157  0.00  0.00     0.099 A 
ATOM     15  C15 UNK A          39.490   1.086   8.004  0.00  0.00     0.098 A 
ATOM     16  C14 UNK A          40.085   2.343   7.897  0.00  0.00     0.040 A 
ATOM     17  C12 UNK A          41.474   2.464   7.941  0.00  0.00     0.017 A 
BRANCH  14  18
ATOM     18  O6  UNK A          39.715  -1.283   8.262  0.00  0.00    -0.358 OA
ATOM     19  H9  UNK A          40.337  -1.898   8.684  0.00  0.00     0.217 HD
ENDBRANCH  14  18
BRANCH  15  20
ATOM     20  O7  UNK A          38.132   0.981   7.963  0.00  0.00    -0.358 OA
ATOM     21  H10 UNK A          37.798   0.704   8.830  0.00  0.00     0.217 HD
ENDBRANCH  15  20
ENDBRANCH   5  12
BRANCH   6  22
ATOM     22  O2  UNK A          43.875   2.417   5.950  0.00  0.00    -0.355 OA
ATOM     23  H6  UNK A          43.191   3.076   6.152  0.00  0.00     0.218 HD
ENDBRANCH   6  22
BRANCH   8  24
ATOM     24  O3  UNK A          48.752   2.112   7.825  0.00  0.00    -0.360 OA
ATOM     25  H7  UNK A          48.326   2.774   7.260  0.00  0.00     0.217 HD
ENDBRANCH   8  24
BRANCH  10  26
ATOM     26  O5  UNK A          48.037   0.241  12.129  0.00  0.00    -0.361 OA
ATOM     27  H8  UNK A          48.424   0.994  12.609  0.00  0.00     0.217 HD
ENDBRANCH  10  26
TORSDOF 6
ENDMDL
