MODEL 1
REMARK VINA RESULT:      -7.5      0.000      0.000
REMARK  6 active torsions:
REMARK  status: ('A' for Active; 'I' for Inactive)
REMARK    1  A    between atoms: O2_2  and  C5_12 
REMARK    2  A    between atoms: O3_3  and  C7_14 
REMARK    3  A    between atoms: O5_5  and  C9_16 
REMARK    4  A    between atoms: O6_6  and  C13_20 
REMARK    5  A    between atoms: O7_7  and  C15_22 
REMARK    6  A    between atoms: C3_10  and  C4_11 
ROOT
ATOM      1  O1  UNK A          39.641  15.128   0.032  0.00  0.00    -0.306 OA
ATOM      2  O4  UNK A          41.753  15.725  -3.403  0.00  0.00    -0.284 OA
ATOM      3  C1  UNK A          40.211  16.573  -1.833  0.00  0.00     0.084 A 
ATOM      4  C2  UNK A          39.516  16.307  -0.654  0.00  0.00     0.096 A 
ATOM      5  C3  UNK A          40.506  14.163  -0.462  0.00  0.00     0.123 A 
ATOM      6  C5  UNK A          41.228  14.292  -1.591  0.00  0.00     0.152 A 
ATOM      7  C6  UNK A          41.120  15.549  -2.369  0.00  0.00     0.223 A 
ATOM      8  C7  UNK A          40.042  17.794  -2.490  0.00  0.00     0.085 A 
ATOM      9  C8  UNK A          38.646  17.262  -0.127  0.00  0.00     0.075 A 
ATOM     10  C9  UNK A          38.475  18.482  -0.780  0.00  0.00     0.071 A 
ATOM     11  C11 UNK A          39.172  18.747  -1.960  0.00  0.00     0.074 A 
ENDROOT
BRANCH   5  12
ATOM     12  C4  UNK A          40.547  12.947   0.369  0.00  0.00     0.004 A 
ATOM     13  C10 UNK A          40.355  13.036   1.748  0.00  0.00     0.053 A 
ATOM     14  C13 UNK A          40.392  11.885   2.533  0.00  0.00     0.099 A 
ATOM     15  C15 UNK A          40.624  10.643   1.941  0.00  0.00     0.098 A 
ATOM     16  C14 UNK A          40.816  10.554   0.562  0.00  0.00     0.040 A 
ATOM     17  C12 UNK A          40.778  11.705  -0.224  0.00  0.00     0.017 A 
BRANCH  14  18
ATOM     18  O6  UNK A          40.204  11.984   3.879  0.00  0.00    -0.358 OA
ATOM     19  H9  UNK A          40.249  12.916   4.149  0.00  0.00     0.217 HD
ENDBRANCH  14  18
BRANCH  15  20
ATOM     20  O7  UNK A          40.661   9.511   2.698  0.00  0.00    -0.358 OA
ATOM     21  H10 UNK A          40.736   8.734   2.122  0.00  0.00     0.217 HD
ENDBRANCH  15  20
ENDBRANCH   5  12
BRANCH   6  22
ATOM     22  O2  UNK A          42.055  13.300  -2.073  0.00  0.00    -0.355 OA
ATOM     23  H6  UNK A          42.630  13.659  -2.768  0.00  0.00     0.218 HD
ENDBRANCH   6  22
BRANCH   8  24
ATOM     24  O3  UNK A          40.697  18.104  -3.644  0.00  0.00    -0.360 OA
ATOM     25  H7  UNK A          41.570  17.683  -3.664  0.00  0.00     0.217 HD
ENDBRANCH   8  24
BRANCH  10  26
ATOM     26  O5  UNK A          37.627  19.415  -0.268  0.00  0.00    -0.361 OA
ATOM     27  H8  UNK A          36.980  18.971   0.307  0.00  0.00     0.217 HD
ENDBRANCH  10  26
TORSDOF 6
ENDMDL
MODEL 2
REMARK VINA RESULT:      -7.2      1.182      6.433
REMARK  6 active torsions:
REMARK  status: ('A' for Active; 'I' for Inactive)
REMARK    1  A    between atoms: O2_2  and  C5_12 
REMARK    2  A    between atoms: O3_3  and  C7_14 
REMARK    3  A    between atoms: O5_5  and  C9_16 
REMARK    4  A    between atoms: O6_6  and  C13_20 
REMARK    5  A    between atoms: O7_7  and  C15_22 
REMARK    6  A    between atoms: C3_10  and  C4_11 
ROOT
ATOM      1  O1  UNK A          39.728  14.409   0.200  0.00  0.00    -0.306 OA
ATOM      2  O4  UNK A          42.324  12.752  -2.469  0.00  0.00    -0.284 OA
ATOM      3  C1  UNK A          40.965  12.465  -0.563  0.00  0.00     0.084 A 
ATOM      4  C2  UNK A          40.084  13.091   0.317  0.00  0.00     0.096 A 
ATOM      5  C3  UNK A          40.258  15.147  -0.847  0.00  0.00     0.123 A 
ATOM      6  C5  UNK A          41.124  14.666  -1.758  0.00  0.00     0.152 A 
ATOM      7  C6  UNK A          41.541  13.246  -1.668  0.00  0.00     0.223 A 
ATOM      8  C7  UNK A          41.292  11.117  -0.394  0.00  0.00     0.085 A 
ATOM      9  C8  UNK A          39.526  12.371   1.374  0.00  0.00     0.075 A 
ATOM     10  C9  UNK A          39.850  11.025   1.546  0.00  0.00     0.071 A 
ATOM     11  C11 UNK A          40.732  10.400   0.663  0.00  0.00     0.074 A 
ENDROOT
BRANCH   5  12
ATOM     12  C4  UNK A          39.795  16.546  -0.856  0.00  0.00     0.004 A 
ATOM     13  C10 UNK A          38.985  17.021   0.176  0.00  0.00     0.053 A 
ATOM     14  C13 UNK A          38.549  18.345   0.167  0.00  0.00     0.099 A 
ATOM     15  C15 UNK A          38.920  19.195  -0.875  0.00  0.00     0.098 A 
ATOM     16  C14 UNK A          39.730  18.721  -1.907  0.00  0.00     0.040 A 
ATOM     17  C12 UNK A          40.168  17.396  -1.898  0.00  0.00     0.017 A 
BRANCH  14  18
ATOM     18  O6  UNK A          37.757  18.798   1.179  0.00  0.00    -0.358 OA
ATOM     19  H9  UNK A          36.878  18.391   1.115  0.00  0.00     0.217 HD
ENDBRANCH  14  18
BRANCH  15  20
ATOM     20  O7  UNK A          38.501  20.491  -0.894  0.00  0.00    -0.358 OA
ATOM     21  H10 UNK A          37.553  20.532  -0.693  0.00  0.00     0.217 HD
ENDBRANCH  15  20
ENDBRANCH   5  12
BRANCH   6  22
ATOM     22  O2  UNK A          41.658  15.436  -2.768  0.00  0.00    -0.355 OA
ATOM     23  H6  UNK A          42.628  15.400  -2.733  0.00  0.00     0.218 HD
ENDBRANCH   6  22
BRANCH   8  24
ATOM     24  O3  UNK A          42.147  10.459  -1.226  0.00  0.00    -0.360 OA
ATOM     25  H7  UNK A          41.709   9.692  -1.626  0.00  0.00     0.217 HD
ENDBRANCH   8  24
BRANCH  10  26
ATOM     26  O5  UNK A          39.307  10.322   2.576  0.00  0.00    -0.361 OA
ATOM     27  H8  UNK A          39.998   9.773   2.984  0.00  0.00     0.217 HD
ENDBRANCH  10  26
TORSDOF 6
ENDMDL
MODEL 3
REMARK VINA RESULT:      -7.0      2.072      3.085
REMARK  6 active torsions:
REMARK  status: ('A' for Active; 'I' for Inactive)
REMARK    1  A    between atoms: O2_2  and  C5_12 
REMARK    2  A    between atoms: O3_3  and  C7_14 
REMARK    3  A    between atoms: O5_5  and  C9_16 
REMARK    4  A    between atoms: O6_6  and  C13_20 
REMARK    5  A    between atoms: O7_7  and  C15_22 
REMARK    6  A    between atoms: C3_10  and  C4_11 
ROOT
ATOM      1  O1  UNK A          39.300  17.444  -0.154  0.00  0.00    -0.306 OA
ATOM      2  O4  UNK A          40.635  18.962  -3.693  0.00  0.00    -0.284 OA
ATOM      3  C1  UNK A          39.805  19.381  -1.526  0.00  0.00     0.084 A 
ATOM      4  C2  UNK A          39.358  18.800  -0.341  0.00  0.00     0.096 A 
ATOM      5  C3  UNK A          39.718  16.616  -1.184  0.00  0.00     0.123 A 
ATOM      6  C5  UNK A          40.163  17.048  -2.378  0.00  0.00     0.152 A 
ATOM      7  C6  UNK A          40.237  18.508  -2.628  0.00  0.00     0.223 A 
ATOM      8  C7  UNK A          39.840  20.772  -1.660  0.00  0.00     0.085 A 
ATOM      9  C8  UNK A          38.940  19.608   0.718  0.00  0.00     0.075 A 
ATOM     10  C9  UNK A          38.974  20.996   0.588  0.00  0.00     0.071 A 
ATOM     11  C11 UNK A          39.423  21.576  -0.599  0.00  0.00     0.074 A 
ENDROOT
BRANCH   5  12
ATOM     12  C4  UNK A          39.606  15.184  -0.853  0.00  0.00     0.004 A 
ATOM     13  C10 UNK A          40.654  14.533  -0.203  0.00  0.00     0.053 A 
ATOM     14  C13 UNK A          40.547  13.179   0.111  0.00  0.00     0.099 A 
ATOM     15  C15 UNK A          39.390  12.474  -0.226  0.00  0.00     0.098 A 
ATOM     16  C14 UNK A          38.342  13.125  -0.876  0.00  0.00     0.040 A 
ATOM     17  C12 UNK A          38.449  14.480  -1.189  0.00  0.00     0.017 A 
BRANCH  14  18
ATOM     18  O6  UNK A          41.577  12.553   0.744  0.00  0.00    -0.358 OA
ATOM     19  H9  UNK A          42.002  11.925   0.137  0.00  0.00     0.217 HD
ENDBRANCH  14  18
BRANCH  15  20
ATOM     20  O7  UNK A          39.273  11.151   0.077  0.00  0.00    -0.358 OA
ATOM     21  H10 UNK A          39.642  10.616  -0.643  0.00  0.00     0.217 HD
ENDBRANCH  15  20
ENDBRANCH   5  12
BRANCH   6  22
ATOM     22  O2  UNK A          40.540  16.197  -3.394  0.00  0.00    -0.355 OA
ATOM     23  H6  UNK A          41.088  15.479  -3.037  0.00  0.00     0.218 HD
ENDBRANCH   6  22
BRANCH   8  24
ATOM     24  O3  UNK A          40.269  21.390  -2.796  0.00  0.00    -0.360 OA
ATOM     25  H7  UNK A          39.932  20.931  -3.580  0.00  0.00     0.217 HD
ENDBRANCH   8  24
BRANCH  10  26
ATOM     26  O5  UNK A          38.568  21.785   1.619  0.00  0.00    -0.361 OA
ATOM     27  H8  UNK A          38.225  21.220   2.333  0.00  0.00     0.217 HD
ENDBRANCH  10  26
TORSDOF 6
ENDMDL
MODEL 4
REMARK VINA RESULT:      -6.8     15.032     15.995
REMARK  6 active torsions:
REMARK  status: ('A' for Active; 'I' for Inactive)
REMARK    1  A    between atoms: O2_2  and  C5_12 
REMARK    2  A    between atoms: O3_3  and  C7_14 
REMARK    3  A    between atoms: O5_5  and  C9_16 
REMARK    4  A    between atoms: O6_6  and  C13_20 
REMARK    5  A    between atoms: O7_7  and  C15_22 
REMARK    6  A    between atoms: C3_10  and  C4_11 
ROOT
ATOM      1  O1  UNK A          43.233   2.010   7.847  0.00  0.00    -0.306 OA
ATOM      2  O4  UNK A          43.754   5.220  10.303  0.00  0.00    -0.284 OA
ATOM      3  C1  UNK A          44.716   3.680   8.798  0.00  0.00     0.084 A 
ATOM      4  C2  UNK A          44.472   2.581   7.976  0.00  0.00     0.096 A 
ATOM      5  C3  UNK A          42.175   2.558   8.555  0.00  0.00     0.123 A 
ATOM      6  C5  UNK A          42.277   3.611   9.386  0.00  0.00     0.152 A 
ATOM      7  C6  UNK A          43.600   4.258   9.562  0.00  0.00     0.223 A 
ATOM      8  C7  UNK A          46.001   4.220   8.891  0.00  0.00     0.085 A 
ATOM      9  C8  UNK A          45.515   2.013   7.244  0.00  0.00     0.075 A 
ATOM     10  C9  UNK A          46.800   2.549   7.334  0.00  0.00     0.071 A 
ATOM     11  C11 UNK A          47.042   3.650   8.157  0.00  0.00     0.074 A 
ENDROOT
BRANCH   5  12
ATOM     12  C4  UNK A          40.902   1.851   8.326  0.00  0.00     0.004 A 
ATOM     13  C10 UNK A          40.134   2.143   7.199  0.00  0.00     0.053 A 
ATOM     14  C13 UNK A          38.931   1.473   6.982  0.00  0.00     0.099 A 
ATOM     15  C15 UNK A          38.494   0.511   7.894  0.00  0.00     0.098 A 
ATOM     16  C14 UNK A          39.261   0.219   9.021  0.00  0.00     0.040 A 
ATOM     17  C12 UNK A          40.466   0.889   9.237  0.00  0.00     0.017 A 
BRANCH  14  18
ATOM     18  O6  UNK A          38.188   1.767   5.879  0.00  0.00    -0.358 OA
ATOM     19  H9  UNK A          38.773   1.894   5.114  0.00  0.00     0.217 HD
ENDBRANCH  14  18
BRANCH  15  20
ATOM     20  O7  UNK A          37.320  -0.151   7.692  0.00  0.00    -0.358 OA
ATOM     21  H10 UNK A          37.415  -0.766   6.948  0.00  0.00     0.217 HD
ENDBRANCH  15  20
ENDBRANCH   5  12
BRANCH   6  22
ATOM     22  O2  UNK A          41.211   4.112  10.101  0.00  0.00    -0.355 OA
ATOM     23  H6  UNK A          41.457   4.956  10.514  0.00  0.00     0.218 HD
ENDBRANCH   6  22
BRANCH   8  24
ATOM     24  O3  UNK A          46.292   5.293   9.679  0.00  0.00    -0.360 OA
ATOM     25  H7  UNK A          45.709   6.038   9.468  0.00  0.00     0.217 HD
ENDBRANCH   8  24
BRANCH  10  26
ATOM     26  O5  UNK A          47.818   1.997   6.620  0.00  0.00    -0.361 OA
ATOM     27  H8  UNK A          48.665   2.265   7.018  0.00  0.00     0.217 HD
ENDBRANCH  10  26
TORSDOF 6
ENDMDL
MODEL 5
REMARK VINA RESULT:      -6.7      1.877      2.666
REMARK  6 active torsions:
REMARK  status: ('A' for Active; 'I' for Inactive)
REMARK    1  A    between atoms: O2_2  and  C5_12 
REMARK    2  A    between atoms: O3_3  and  C7_14 
REMARK    3  A    between atoms: O5_5  and  C9_16 
REMARK    4  A    between atoms: O6_6  and  C13_20 
REMARK    5  A    between atoms: O7_7  and  C15_22 
REMARK    6  A    between atoms: C3_10  and  C4_11 
ROOT
ATOM      1  O1  UNK A          39.400  16.346  -0.221  0.00  0.00    -0.306 OA
ATOM      2  O4  UNK A          40.597  18.771  -3.270  0.00  0.00    -0.284 OA
ATOM      3  C1  UNK A          39.424  18.551  -1.236  0.00  0.00     0.084 A 
ATOM      4  C2  UNK A          39.046  17.670  -0.224  0.00  0.00     0.096 A 
ATOM      5  C3  UNK A          40.179  15.867  -1.262  0.00  0.00     0.123 A 
ATOM      6  C5  UNK A          40.603  16.609  -2.302  0.00  0.00     0.152 A 
ATOM      7  C6  UNK A          40.240  18.045  -2.351  0.00  0.00     0.223 A 
ATOM      8  C7  UNK A          39.032  19.891  -1.187  0.00  0.00     0.085 A 
ATOM      9  C8  UNK A          38.271  18.125   0.843  0.00  0.00     0.075 A 
ATOM     10  C9  UNK A          37.877  19.462   0.895  0.00  0.00     0.071 A 
ATOM     11  C11 UNK A          38.258  20.343  -0.119  0.00  0.00     0.074 A 
ENDROOT
BRANCH   5  12
ATOM     12  C4  UNK A          40.488  14.432  -1.136  0.00  0.00     0.004 A 
ATOM     13  C10 UNK A          39.609  13.584  -0.461  0.00  0.00     0.053 A 
ATOM     14  C13 UNK A          39.901  12.226  -0.343  0.00  0.00     0.099 A 
ATOM     15  C15 UNK A          41.074  11.714  -0.900  0.00  0.00     0.098 A 
ATOM     16  C14 UNK A          41.953  12.560  -1.575  0.00  0.00     0.040 A 
ATOM     17  C12 UNK A          41.660  13.919  -1.694  0.00  0.00     0.017 A 
BRANCH  14  18
ATOM     18  O6  UNK A          39.037  11.409   0.320  0.00  0.00    -0.358 OA
ATOM     19  H9  UNK A          38.559  10.851  -0.316  0.00  0.00     0.217 HD
ENDBRANCH  14  18
BRANCH  15  20
ATOM     20  O7  UNK A          41.369  10.388  -0.792  0.00  0.00    -0.358 OA
ATOM     21  H10 UNK A          42.260  10.280  -0.423  0.00  0.00     0.217 HD
ENDBRANCH  15  20
ENDBRANCH   5  12
BRANCH   6  22
ATOM     22  O2  UNK A          41.350  16.094  -3.340  0.00  0.00    -0.355 OA
ATOM     23  H6  UNK A          41.233  15.130  -3.383  0.00  0.00     0.218 HD
ENDBRANCH   6  22
BRANCH   8  24
ATOM     24  O3  UNK A          39.375  20.792  -2.150  0.00  0.00    -0.360 OA
ATOM     25  H7  UNK A          40.235  20.567  -2.535  0.00  0.00     0.217 HD
ENDBRANCH   8  24
BRANCH  10  26
ATOM     26  O5  UNK A          37.122  19.908   1.935  0.00  0.00    -0.361 OA
ATOM     27  H8  UNK A          37.648  19.861   2.752  0.00  0.00     0.217 HD
ENDBRANCH  10  26
TORSDOF 6
ENDMDL
MODEL 6
REMARK VINA RESULT:      -6.6     14.842     15.590
REMARK  6 active torsions:
REMARK  status: ('A' for Active; 'I' for Inactive)
REMARK    1  A    between atoms: O2_2  and  C5_12 
REMARK    2  A    between atoms: O3_3  and  C7_14 
REMARK    3  A    between atoms: O5_5  and  C9_16 
REMARK    4  A    between atoms: O6_6  and  C13_20 
REMARK    5  A    between atoms: O7_7  and  C15_22 
REMARK    6  A    between atoms: C3_10  and  C4_11 
ROOT
ATOM      1  O1  UNK A          42.418   3.353   9.040  0.00  0.00    -0.306 OA
ATOM      2  O4  UNK A          46.036   2.348   7.457  0.00  0.00    -0.284 OA
ATOM      3  C1  UNK A          44.790   3.816   8.818  0.00  0.00     0.084 A 
ATOM      4  C2  UNK A          43.525   4.107   9.327  0.00  0.00     0.096 A 
ATOM      5  C3  UNK A          42.565   2.245   8.220  0.00  0.00     0.123 A 
ATOM      6  C5  UNK A          43.727   1.860   7.660  0.00  0.00     0.152 A 
ATOM      7  C6  UNK A          44.951   2.649   7.937  0.00  0.00     0.223 A 
ATOM      8  C7  UNK A          45.883   4.622   9.144  0.00  0.00     0.085 A 
ATOM      9  C8  UNK A          43.346   5.210  10.163  0.00  0.00     0.075 A 
ATOM     10  C9  UNK A          44.436   6.017  10.490  0.00  0.00     0.071 A 
ATOM     11  C11 UNK A          45.702   5.723   9.981  0.00  0.00     0.074 A 
ENDROOT
BRANCH   5  12
ATOM     12  C4  UNK A          41.301   1.524   7.994  0.00  0.00     0.004 A 
ATOM     13  C10 UNK A          40.351   2.038   7.110  0.00  0.00     0.053 A 
ATOM     14  C13 UNK A          39.155   1.354   6.895  0.00  0.00     0.099 A 
ATOM     15  C15 UNK A          38.906   0.156   7.566  0.00  0.00     0.098 A 
ATOM     16  C14 UNK A          39.855  -0.358   8.450  0.00  0.00     0.040 A 
ATOM     17  C12 UNK A          41.052   0.325   8.664  0.00  0.00     0.017 A 
BRANCH  14  18
ATOM     18  O6  UNK A          38.235   1.867   6.032  0.00  0.00    -0.358 OA
ATOM     19  H9  UNK A          38.367   2.825   5.943  0.00  0.00     0.217 HD
ENDBRANCH  14  18
BRANCH  15  20
ATOM     20  O7  UNK A          37.742  -0.521   7.363  0.00  0.00    -0.358 OA
ATOM     21  H10 UNK A          37.847  -1.444   7.642  0.00  0.00     0.217 HD
ENDBRANCH  15  20
ENDBRANCH   5  12
BRANCH   6  22
ATOM     22  O2  UNK A          43.834   0.771   6.822  0.00  0.00    -0.355 OA
ATOM     23  H6  UNK A          43.481  -0.020   7.261  0.00  0.00     0.218 HD
ENDBRANCH   6  22
BRANCH   8  24
ATOM     24  O3  UNK A          47.139   4.381   8.674  0.00  0.00    -0.360 OA
ATOM     25  H7  UNK A          47.594   3.735   9.235  0.00  0.00     0.217 HD
ENDBRANCH   8  24
BRANCH  10  26
ATOM     26  O5  UNK A          44.264   7.092  11.306  0.00  0.00    -0.361 OA
ATOM     27  H8  UNK A          45.092   7.259  11.788  0.00  0.00     0.217 HD
ENDBRANCH  10  26
TORSDOF 6
ENDMDL
MODEL 7
REMARK VINA RESULT:      -6.5     15.118     18.072
REMARK  6 active torsions:
REMARK  status: ('A' for Active; 'I' for Inactive)
REMARK    1  A    between atoms: O2_2  and  C5_12 
REMARK    2  A    between atoms: O3_3  and  C7_14 
REMARK    3  A    between atoms: O5_5  and  C9_16 
REMARK    4  A    between atoms: O6_6  and  C13_20 
REMARK    5  A    between atoms: O7_7  and  C15_22 
REMARK    6  A    between atoms: C3_10  and  C4_11 
ROOT
ATOM      1  O1  UNK A          39.709   0.368   8.618  0.00  0.00    -0.306 OA
ATOM      2  O4  UNK A          43.446  -0.769   9.781  0.00  0.00    -0.284 OA
ATOM      3  C1  UNK A          41.879   0.975   9.519  0.00  0.00     0.084 A 
ATOM      4  C2  UNK A          40.589   1.299   9.104  0.00  0.00     0.096 A 
ATOM      5  C3  UNK A          40.116  -0.955   8.549  0.00  0.00     0.123 A 
ATOM      6  C5  UNK A          41.335  -1.398   8.909  0.00  0.00     0.152 A 
ATOM      7  C6  UNK A          42.322  -0.425   9.436  0.00  0.00     0.223 A 
ATOM      8  C7  UNK A          42.734   1.967  10.005  0.00  0.00     0.085 A 
ATOM      9  C8  UNK A          40.146   2.621   9.170  0.00  0.00     0.075 A 
ATOM     10  C9  UNK A          40.997   3.615   9.655  0.00  0.00     0.071 A 
ATOM     11  C11 UNK A          42.289   3.288  10.071  0.00  0.00     0.074 A 
ENDROOT
BRANCH   5  12
ATOM     12  C4  UNK A          39.077  -1.850   8.011  0.00  0.00     0.004 A 
ATOM     13  C10 UNK A          39.362  -2.679   6.926  0.00  0.00     0.053 A 
ATOM     14  C13 UNK A          38.378  -3.527   6.417  0.00  0.00     0.099 A 
ATOM     15  C15 UNK A          37.107  -3.544   6.993  0.00  0.00     0.098 A 
ATOM     16  C14 UNK A          36.821  -2.715   8.077  0.00  0.00     0.040 A 
ATOM     17  C12 UNK A          37.806  -1.868   8.586  0.00  0.00     0.017 A 
BRANCH  14  18
ATOM     18  O6  UNK A          38.668  -4.331   5.357  0.00  0.00    -0.358 OA
ATOM     19  H9  UNK A          38.846  -3.788   4.572  0.00  0.00     0.217 HD
ENDBRANCH  14  18
BRANCH  15  20
ATOM     20  O7  UNK A          36.138  -4.369   6.505  0.00  0.00    -0.358 OA
ATOM     21  H10 UNK A          36.547  -5.131   6.066  0.00  0.00     0.217 HD
ENDBRANCH  15  20
ENDBRANCH   5  12
BRANCH   6  22
ATOM     22  O2  UNK A          41.720  -2.716   8.798  0.00  0.00    -0.355 OA
ATOM     23  H6  UNK A          42.119  -3.015   9.631  0.00  0.00     0.218 HD
ENDBRANCH   6  22
BRANCH   8  24
ATOM     24  O3  UNK A          44.004   1.703  10.423  0.00  0.00    -0.360 OA
ATOM     25  H7  UNK A          44.647   2.194   9.889  0.00  0.00     0.217 HD
ENDBRANCH   8  24
BRANCH  10  26
ATOM     26  O5  UNK A          40.567   4.904   9.721  0.00  0.00    -0.361 OA
ATOM     27  H8  UNK A          39.764   4.941  10.269  0.00  0.00     0.217 HD
ENDBRANCH  10  26
TORSDOF 6
ENDMDL
MODEL 8
REMARK VINA RESULT:      -6.5     13.384     15.517
REMARK  6 active torsions:
REMARK  status: ('A' for Active; 'I' for Inactive)
REMARK    1  A    between atoms: O2_2  and  C5_12 
REMARK    2  A    between atoms: O3_3  and  C7_14 
REMARK    3  A    between atoms: O5_5  and  C9_16 
REMARK    4  A    between atoms: O6_6  and  C13_20 
REMARK    5  A    between atoms: O7_7  and  C15_22 
REMARK    6  A    between atoms: C3_10  and  C4_11 
ROOT
ATOM      1  O1  UNK A          42.370  21.260  12.002  0.00  0.00    -0.306 OA
ATOM      2  O4  UNK A          45.615  18.967  11.093  0.00  0.00    -0.284 OA
ATOM      3  C1  UNK A          43.387  19.061  11.863  0.00  0.00     0.084 A 
ATOM      4  C2  UNK A          42.314  19.900  12.157  0.00  0.00     0.096 A 
ATOM      5  C3  UNK A          43.541  21.823  11.520  0.00  0.00     0.123 A 
ATOM      6  C5  UNK A          44.650  21.128  11.207  0.00  0.00     0.152 A 
ATOM      7  C6  UNK A          44.637  19.653  11.363  0.00  0.00     0.223 A 
ATOM      8  C7  UNK A          43.273  17.680  12.042  0.00  0.00     0.085 A 
ATOM      9  C8  UNK A          41.119  19.361  12.635  0.00  0.00     0.075 A 
ATOM     10  C9  UNK A          41.000  17.983  12.815  0.00  0.00     0.071 A 
ATOM     11  C11 UNK A          42.076  17.145  12.519  0.00  0.00     0.074 A 
ENDROOT
BRANCH   5  12
ATOM     12  C4  UNK A          43.467  23.290  11.401  0.00  0.00     0.004 A 
ATOM     13  C10 UNK A          43.677  23.903  10.165  0.00  0.00     0.053 A 
ATOM     14  C13 UNK A          43.606  25.290  10.053  0.00  0.00     0.099 A 
ATOM     15  C15 UNK A          43.327  26.068  11.177  0.00  0.00     0.098 A 
ATOM     16  C14 UNK A          43.117  25.456  12.413  0.00  0.00     0.040 A 
ATOM     17  C12 UNK A          43.187  24.067  12.525  0.00  0.00     0.017 A 
BRANCH  14  18
ATOM     18  O6  UNK A          43.814  25.877   8.841  0.00  0.00    -0.358 OA
ATOM     19  H9  UNK A          44.607  25.501   8.426  0.00  0.00     0.217 HD
ENDBRANCH  14  18
BRANCH  15  20
ATOM     20  O7  UNK A          43.253  27.425  11.080  0.00  0.00    -0.358 OA
ATOM     21  H10 UNK A          43.273  27.687  10.146  0.00  0.00     0.217 HD
ENDBRANCH  15  20
ENDBRANCH   5  12
BRANCH   6  22
ATOM     22  O2  UNK A          45.810  21.722  10.760  0.00  0.00    -0.355 OA
ATOM     23  H6  UNK A          46.580  21.217  11.069  0.00  0.00     0.218 HD
ENDBRANCH   6  22
BRANCH   8  24
ATOM     24  O3  UNK A          44.291  16.817  11.770  0.00  0.00    -0.360 OA
ATOM     25  H7  UNK A          44.789  17.112  10.993  0.00  0.00     0.217 HD
ENDBRANCH   8  24
BRANCH  10  26
ATOM     26  O5  UNK A          39.836  17.456  13.280  0.00  0.00    -0.361 OA
ATOM     27  H8  UNK A          39.845  16.494  13.139  0.00  0.00     0.217 HD
ENDBRANCH  10  26
TORSDOF 6
ENDMDL
MODEL 9
REMARK VINA RESULT:      -6.4     24.945     28.206
REMARK  6 active torsions:
REMARK  status: ('A' for Active; 'I' for Inactive)
REMARK    1  A    between atoms: O2_2  and  C5_12 
REMARK    2  A    between atoms: O3_3  and  C7_14 
REMARK    3  A    between atoms: O5_5  and  C9_16 
REMARK    4  A    between atoms: O6_6  and  C13_20 
REMARK    5  A    between atoms: O7_7  and  C15_22 
REMARK    6  A    between atoms: C3_10  and  C4_11 
ROOT
ATOM      1  O1  UNK A          48.020 -11.154  -3.985  0.00  0.00    -0.306 OA
ATOM      2  O4  UNK A          50.558 -12.301  -6.960  0.00  0.00    -0.284 OA
ATOM      3  C1  UNK A          49.858 -10.609  -5.474  0.00  0.00     0.084 A 
ATOM      4  C2  UNK A          48.961 -10.278  -4.460  0.00  0.00     0.096 A 
ATOM      5  C3  UNK A          47.968 -12.428  -4.528  0.00  0.00     0.123 A 
ATOM      6  C5  UNK A          48.769 -12.870  -5.515  0.00  0.00     0.152 A 
ATOM      7  C6  UNK A          49.799 -11.955  -6.064  0.00  0.00     0.223 A 
ATOM      8  C7  UNK A          50.795  -9.674  -5.919  0.00  0.00     0.085 A 
ATOM      9  C8  UNK A          48.995  -9.006  -3.886  0.00  0.00     0.075 A 
ATOM     10  C9  UNK A          49.930  -8.070  -4.328  0.00  0.00     0.071 A 
ATOM     11  C11 UNK A          50.828  -8.404  -5.343  0.00  0.00     0.074 A 
ENDROOT
BRANCH   5  12
ATOM     12  C4  UNK A          46.915 -13.266  -3.929  0.00  0.00     0.004 A 
ATOM     13  C10 UNK A          45.634 -13.282  -4.483  0.00  0.00     0.053 A 
ATOM     14  C13 UNK A          44.638 -14.076  -3.916  0.00  0.00     0.099 A 
ATOM     15  C15 UNK A          44.922 -14.854  -2.793  0.00  0.00     0.098 A 
ATOM     16  C14 UNK A          46.201 -14.839  -2.239  0.00  0.00     0.040 A 
ATOM     17  C12 UNK A          47.198 -14.045  -2.806  0.00  0.00     0.017 A 
BRANCH  14  18
ATOM     18  O6  UNK A          43.392 -14.082  -4.465  0.00  0.00    -0.358 OA
ATOM     19  H9  UNK A          43.454 -14.249  -5.419  0.00  0.00     0.217 HD
ENDBRANCH  14  18
BRANCH  15  20
ATOM     20  O7  UNK A          43.957 -15.636  -2.232  0.00  0.00    -0.358 OA
ATOM     21  H10 UNK A          43.914 -16.487  -2.695  0.00  0.00     0.217 HD
ENDBRANCH  15  20
ENDBRANCH   5  12
BRANCH   6  22
ATOM     22  O2  UNK A          48.670 -14.134  -6.056  0.00  0.00    -0.355 OA
ATOM     23  H6  UNK A          49.525 -14.400  -6.432  0.00  0.00     0.218 HD
ENDBRANCH   6  22
BRANCH   8  24
ATOM     24  O3  UNK A          51.694  -9.947  -6.906  0.00  0.00    -0.360 OA
ATOM     25  H7  UNK A          52.201  -9.154  -7.134  0.00  0.00     0.217 HD
ENDBRANCH   8  24
BRANCH  10  26
ATOM     26  O5  UNK A          49.965  -6.830  -3.770  0.00  0.00    -0.361 OA
ATOM     27  H8  UNK A          50.893  -6.551  -3.677  0.00  0.00     0.217 HD
ENDBRANCH  10  26
TORSDOF 6
ENDMDL
MODEL 10
REMARK VINA RESULT:      -6.4     13.140     15.684
REMARK  6 active torsions:
REMARK  status: ('A' for Active; 'I' for Inactive)
REMARK    1  A    between atoms: O2_2  and  C5_12 
REMARK    2  A    between atoms: O3_3  and  C7_14 
REMARK    3  A    between atoms: O5_5  and  C9_16 
REMARK    4  A    between atoms: O6_6  and  C13_20 
REMARK    5  A    between atoms: O7_7  and  C15_22 
REMARK    6  A    between atoms: C3_10  and  C4_11 
ROOT
ATOM      1  O1  UNK A          44.442  21.299  11.716  0.00  0.00    -0.306 OA
ATOM      2  O4  UNK A          41.150  18.921  11.375  0.00  0.00    -0.284 OA
ATOM      3  C1  UNK A          43.475  19.073  11.742  0.00  0.00     0.084 A 
ATOM      4  C2  UNK A          44.561  19.941  11.847  0.00  0.00     0.096 A 
ATOM      5  C3  UNK A          43.185  21.834  11.483  0.00  0.00     0.123 A 
ATOM      6  C5  UNK A          42.059  21.108  11.353  0.00  0.00     0.152 A 
ATOM      7  C6  UNK A          42.140  19.633  11.482  0.00  0.00     0.223 A 
ATOM      8  C7  UNK A          43.657  17.695  11.883  0.00  0.00     0.085 A 
ATOM      9  C8  UNK A          45.838  19.433  12.091  0.00  0.00     0.075 A 
ATOM     10  C9  UNK A          46.023  18.058  12.232  0.00  0.00     0.071 A 
ATOM     11  C11 UNK A          44.934  17.191  12.128  0.00  0.00     0.074 A 
ENDROOT
BRANCH   5  12
ATOM     12  C4  UNK A          43.197  23.303  11.364  0.00  0.00     0.004 A 
ATOM     13  C10 UNK A          43.517  23.903  10.146  0.00  0.00     0.053 A 
ATOM     14  C13 UNK A          43.527  25.292  10.033  0.00  0.00     0.099 A 
ATOM     15  C15 UNK A          43.220  26.084  11.140  0.00  0.00     0.098 A 
ATOM     16  C14 UNK A          42.901  25.485  12.359  0.00  0.00     0.040 A 
ATOM     17  C12 UNK A          42.889  24.095  12.471  0.00  0.00     0.017 A 
BRANCH  14  18
ATOM     18  O6  UNK A          43.842  25.866   8.839  0.00  0.00    -0.358 OA
ATOM     19  H9  UNK A          43.975  25.177   8.168  0.00  0.00     0.217 HD
ENDBRANCH  14  18
BRANCH  15  20
ATOM     20  O7  UNK A          43.226  27.443  11.042  0.00  0.00    -0.358 OA
ATOM     21  H10 UNK A          42.574  27.818  11.655  0.00  0.00     0.217 HD
ENDBRANCH  15  20
ENDBRANCH   5  12
BRANCH   6  22
ATOM     22  O2  UNK A          40.828  21.669  11.089  0.00  0.00    -0.355 OA
ATOM     23  H6  UNK A          40.148  20.976  11.063  0.00  0.00     0.218 HD
ENDBRANCH   6  22
BRANCH   8  24
ATOM     24  O3  UNK A          42.629  16.805  11.790  0.00  0.00    -0.360 OA
ATOM     25  H7  UNK A          41.902  17.063  12.376  0.00  0.00     0.217 HD
ENDBRANCH   8  24
BRANCH  10  26
ATOM     26  O5  UNK A          47.267  17.561  12.471  0.00  0.00    -0.361 OA
ATOM     27  H8  UNK A          47.915  18.283  12.397  0.00  0.00     0.217 HD
ENDBRANCH  10  26
TORSDOF 6
ENDMDL
MODEL 11
REMARK VINA RESULT:      -6.4     15.987     18.386
REMARK  6 active torsions:
REMARK  status: ('A' for Active; 'I' for Inactive)
REMARK    1  A    between atoms: O2_2  and  C5_12 
REMARK    2  A    between atoms: O3_3  and  C7_14 
REMARK    3  A    between atoms: O5_5  and  C9_16 
REMARK    4  A    between atoms: O6_6  and  C13_20 
REMARK    5  A    between atoms: O7_7  and  C15_22 
REMARK    6  A    between atoms: C3_10  and  C4_11 
ROOT
ATOM      1  O1  UNK A          45.227   0.170   9.938  0.00  0.00    -0.306 OA
ATOM      2  O4  UNK A          44.405   2.244   6.528  0.00  0.00    -0.284 OA
ATOM      3  C1  UNK A          46.017   1.547   8.103  0.00  0.00     0.084 A 
ATOM      4  C2  UNK A          46.232   0.822   9.273  0.00  0.00     0.096 A 
ATOM      5  C3  UNK A          43.944   0.222   9.416  0.00  0.00     0.123 A 
ATOM      6  C5  UNK A          43.602   0.893   8.300  0.00  0.00     0.152 A 
ATOM      7  C6  UNK A          44.656   1.618   7.550  0.00  0.00     0.223 A 
ATOM      8  C7  UNK A          47.080   2.194   7.468  0.00  0.00     0.085 A 
ATOM      9  C8  UNK A          47.514   0.742   9.818  0.00  0.00     0.075 A 
ATOM     10  C9  UNK A          48.578   1.387   9.188  0.00  0.00     0.071 A 
ATOM     11  C11 UNK A          48.361   2.111   8.015  0.00  0.00     0.074 A 
ENDROOT
BRANCH   5  12
ATOM     12  C4  UNK A          42.962  -0.520  10.225  0.00  0.00     0.004 A 
ATOM     13  C10 UNK A          42.609  -1.823   9.874  0.00  0.00     0.053 A 
ATOM     14  C13 UNK A          41.681  -2.526  10.641  0.00  0.00     0.099 A 
ATOM     15  C15 UNK A          41.103  -1.924  11.760  0.00  0.00     0.098 A 
ATOM     16  C14 UNK A          41.456  -0.621  12.112  0.00  0.00     0.040 A 
ATOM     17  C12 UNK A          42.385   0.081  11.345  0.00  0.00     0.017 A 
BRANCH  14  18
ATOM     18  O6  UNK A          41.343  -3.797  10.288  0.00  0.00    -0.358 OA
ATOM     19  H9  UNK A          40.388  -3.927  10.405  0.00  0.00     0.217 HD
ENDBRANCH  14  18
BRANCH  15  20
ATOM     20  O7  UNK A          40.196  -2.601  12.518  0.00  0.00    -0.358 OA
ATOM     21  H10 UNK A          40.145  -2.203  13.402  0.00  0.00     0.217 HD
ENDBRANCH  15  20
ENDBRANCH   5  12
BRANCH   6  22
ATOM     22  O2  UNK A          42.310   0.952   7.824  0.00  0.00    -0.355 OA
ATOM     23  H6  UNK A          41.826   1.665   8.273  0.00  0.00     0.218 HD
ENDBRANCH   6  22
BRANCH   8  24
ATOM     24  O3  UNK A          46.924   2.915   6.322  0.00  0.00    -0.360 OA
ATOM     25  H7  UNK A          46.646   2.339   5.594  0.00  0.00     0.217 HD
ENDBRANCH   8  24
BRANCH  10  26
ATOM     26  O5  UNK A          49.829   1.309   9.717  0.00  0.00    -0.361 OA
ATOM     27  H8  UNK A          49.766   0.983  10.631  0.00  0.00     0.217 HD
ENDBRANCH  10  26
TORSDOF 6
ENDMDL
MODEL 12
REMARK VINA RESULT:      -6.3     15.372     17.329
REMARK  6 active torsions:
REMARK  status: ('A' for Active; 'I' for Inactive)
REMARK    1  A    between atoms: O2_2  and  C5_12 
REMARK    2  A    between atoms: O3_3  and  C7_14 
REMARK    3  A    between atoms: O5_5  and  C9_16 
REMARK    4  A    between atoms: O6_6  and  C13_20 
REMARK    5  A    between atoms: O7_7  and  C15_22 
REMARK    6  A    between atoms: C3_10  and  C4_11 
ROOT
ATOM      1  O1  UNK A          44.215   1.639   7.541  0.00  0.00    -0.306 OA
ATOM      2  O4  UNK A          45.743   0.788  11.222  0.00  0.00    -0.284 OA
ATOM      3  C1  UNK A          46.141   1.510   9.012  0.00  0.00     0.084 A 
ATOM      4  C2  UNK A          45.558   1.783   7.776  0.00  0.00     0.096 A 
ATOM      5  C3  UNK A          43.402   1.216   8.581  0.00  0.00     0.123 A 
ATOM      6  C5  UNK A          43.840   0.912   9.816  0.00  0.00     0.152 A 
ATOM      7  C6  UNK A          45.286   1.048  10.116  0.00  0.00     0.223 A 
ATOM      8  C7  UNK A          47.517   1.673   9.194  0.00  0.00     0.085 A 
ATOM      9  C8  UNK A          46.348   2.219   6.713  0.00  0.00     0.075 A 
ATOM     10  C9  UNK A          47.722   2.384   6.890  0.00  0.00     0.071 A 
ATOM     11  C11 UNK A          48.304   2.111   8.129  0.00  0.00     0.074 A 
ENDROOT
BRANCH   5  12
ATOM     12  C4  UNK A          41.985   1.104   8.194  0.00  0.00     0.004 A 
ATOM     13  C10 UNK A          41.328  -0.122   8.295  0.00  0.00     0.053 A 
ATOM     14  C13 UNK A          39.986  -0.227   7.930  0.00  0.00     0.099 A 
ATOM     15  C15 UNK A          39.301   0.895   7.462  0.00  0.00     0.098 A 
ATOM     16  C14 UNK A          39.957   2.121   7.361  0.00  0.00     0.040 A 
ATOM     17  C12 UNK A          41.299   2.226   7.727  0.00  0.00     0.017 A 
BRANCH  14  18
ATOM     18  O6  UNK A          39.355  -1.430   8.031  0.00  0.00    -0.358 OA
ATOM     19  H9  UNK A          39.017  -1.697   7.161  0.00  0.00     0.217 HD
ENDBRANCH  14  18
BRANCH  15  20
ATOM     20  O7  UNK A          37.989   0.805   7.104  0.00  0.00    -0.358 OA
ATOM     21  H10 UNK A          37.427   1.061   7.852  0.00  0.00     0.217 HD
ENDBRANCH  15  20
ENDBRANCH   5  12
BRANCH   6  22
ATOM     22  O2  UNK A          43.010   0.463  10.820  0.00  0.00    -0.355 OA
ATOM     23  H6  UNK A          43.499   0.417  11.658  0.00  0.00     0.218 HD
ENDBRANCH   6  22
BRANCH   8  24
ATOM     24  O3  UNK A          48.136   1.420  10.381  0.00  0.00    -0.360 OA
ATOM     25  H7  UNK A          47.502   1.083  11.031  0.00  0.00     0.217 HD
ENDBRANCH   8  24
BRANCH  10  26
ATOM     26  O5  UNK A          48.495   2.810   5.855  0.00  0.00    -0.361 OA
ATOM     27  H8  UNK A          49.326   2.305   5.851  0.00  0.00     0.217 HD
ENDBRANCH  10  26
TORSDOF 6
ENDMDL
MODEL 13
REMARK VINA RESULT:      -6.3     12.812     15.888
REMARK  6 active torsions:
REMARK  status: ('A' for Active; 'I' for Inactive)
REMARK    1  A    between atoms: O2_2  and  C5_12 
REMARK    2  A    between atoms: O3_3  and  C7_14 
REMARK    3  A    between atoms: O5_5  and  C9_16 
REMARK    4  A    between atoms: O6_6  and  C13_20 
REMARK    5  A    between atoms: O7_7  and  C15_22 
REMARK    6  A    between atoms: C3_10  and  C4_11 
ROOT
ATOM      1  O1  UNK A          38.861  22.094  11.041  0.00  0.00    -0.306 OA
ATOM      2  O4  UNK A          37.711  19.644  14.088  0.00  0.00    -0.284 OA
ATOM      3  C1  UNK A          39.289  20.133  12.405  0.00  0.00     0.084 A 
ATOM      4  C2  UNK A          39.627  21.007  11.374  0.00  0.00     0.096 A 
ATOM      5  C3  UNK A          37.709  22.340  11.771  0.00  0.00     0.123 A 
ATOM      6  C5  UNK A          37.268  21.570  12.783  0.00  0.00     0.152 A 
ATOM      7  C6  UNK A          38.061  20.381  13.175  0.00  0.00     0.223 A 
ATOM      8  C7  UNK A          40.108  19.039  12.698  0.00  0.00     0.085 A 
ATOM      9  C8  UNK A          40.786  20.791  10.627  0.00  0.00     0.075 A 
ATOM     10  C9  UNK A          41.606  19.701  10.917  0.00  0.00     0.071 A 
ATOM     11  C11 UNK A          41.267  18.827  11.951  0.00  0.00     0.074 A 
ENDROOT
BRANCH   5  12
ATOM     12  C4  UNK A          36.981  23.536  11.311  0.00  0.00     0.004 A 
ATOM     13  C10 UNK A          37.289  24.789  11.842  0.00  0.00     0.053 A 
ATOM     14  C13 UNK A          36.602  25.921  11.406  0.00  0.00     0.099 A 
ATOM     15  C15 UNK A          35.603  25.800  10.439  0.00  0.00     0.098 A 
ATOM     16  C14 UNK A          35.294  24.548   9.908  0.00  0.00     0.040 A 
ATOM     17  C12 UNK A          35.983  23.416  10.344  0.00  0.00     0.017 A 
BRANCH  14  18
ATOM     18  O6  UNK A          36.911  27.138  11.933  0.00  0.00    -0.358 OA
ATOM     19  H9  UNK A          37.423  27.022  12.750  0.00  0.00     0.217 HD
ENDBRANCH  14  18
BRANCH  15  20
ATOM     20  O7  UNK A          34.925  26.899  10.004  0.00  0.00    -0.358 OA
ATOM     21  H10 UNK A          34.624  26.758   9.093  0.00  0.00     0.217 HD
ENDBRANCH  15  20
ENDBRANCH   5  12
BRANCH   6  22
ATOM     22  O2  UNK A          36.099  21.825  13.468  0.00  0.00    -0.355 OA
ATOM     23  H6  UNK A          36.244  21.711  14.421  0.00  0.00     0.218 HD
ENDBRANCH   6  22
BRANCH   8  24
ATOM     24  O3  UNK A          39.824  18.155  13.695  0.00  0.00    -0.360 OA
ATOM     25  H7  UNK A          40.018  18.545  14.561  0.00  0.00     0.217 HD
ENDBRANCH   8  24
BRANCH  10  26
ATOM     26  O5  UNK A          42.737  19.489  10.191  0.00  0.00    -0.361 OA
ATOM     27  H8  UNK A          43.220  18.735  10.571  0.00  0.00     0.217 HD
ENDBRANCH  10  26
TORSDOF 6
ENDMDL
MODEL 14
REMARK VINA RESULT:      -6.3     10.371     11.993
REMARK  6 active torsions:
REMARK  status: ('A' for Active; 'I' for Inactive)
REMARK    1  A    between atoms: O2_2  and  C5_12 
REMARK    2  A    between atoms: O3_3  and  C7_14 
REMARK    3  A    between atoms: O5_5  and  C9_16 
REMARK    4  A    between atoms: O6_6  and  C13_20 
REMARK    5  A    between atoms: O7_7  and  C15_22 
REMARK    6  A    between atoms: C3_10  and  C4_11 
ROOT
ATOM      1  O1  UNK A          46.366  11.221  -7.900  0.00  0.00    -0.306 OA
ATOM      2  O4  UNK A          47.938   7.637  -9.037  0.00  0.00    -0.284 OA
ATOM      3  C1  UNK A          46.071   9.078  -8.998  0.00  0.00     0.084 A 
ATOM      4  C2  UNK A          45.593  10.318  -8.581  0.00  0.00     0.096 A 
ATOM      5  C3  UNK A          47.684  10.891  -7.626  0.00  0.00     0.123 A 
ATOM      6  C5  UNK A          48.264   9.725  -7.966  0.00  0.00     0.152 A 
ATOM      7  C6  UNK A          47.465   8.715  -8.700  0.00  0.00     0.223 A 
ATOM      8  C7  UNK A          45.235   8.196  -9.689  0.00  0.00     0.085 A 
ATOM      9  C8  UNK A          44.274  10.684  -8.850  0.00  0.00     0.075 A 
ATOM     10  C9  UNK A          43.436   9.807  -9.540  0.00  0.00     0.071 A 
ATOM     11  C11 UNK A          43.917   8.565  -9.958  0.00  0.00     0.074 A 
ENDROOT
BRANCH   5  12
ATOM     12  C4  UNK A          48.402  11.947  -6.891  0.00  0.00     0.004 A 
ATOM     13  C10 UNK A          48.314  12.014  -5.500  0.00  0.00     0.053 A 
ATOM     14  C13 UNK A          48.995  13.013  -4.805  0.00  0.00     0.099 A 
ATOM     15  C15 UNK A          49.762  13.948  -5.501  0.00  0.00     0.098 A 
ATOM     16  C14 UNK A          49.850  13.882  -6.891  0.00  0.00     0.040 A 
ATOM     17  C12 UNK A          49.170  12.882  -7.587  0.00  0.00     0.017 A 
BRANCH  14  18
ATOM     18  O6  UNK A          48.901  13.069  -3.448  0.00  0.00    -0.358 OA
ATOM     19  H9  UNK A          49.553  12.471  -3.048  0.00  0.00     0.217 HD
ENDBRANCH  14  18
BRANCH  15  20
ATOM     20  O7  UNK A          50.432  14.928  -4.833  0.00  0.00    -0.358 OA
ATOM     21  H10 UNK A          50.390  15.756  -5.336  0.00  0.00     0.217 HD
ENDBRANCH  15  20
ENDBRANCH   5  12
BRANCH   6  22
ATOM     22  O2  UNK A          49.569   9.413  -7.650  0.00  0.00    -0.355 OA
ATOM     23  H6  UNK A          49.588   8.727  -6.963  0.00  0.00     0.218 HD
ENDBRANCH   6  22
BRANCH   8  24
ATOM     24  O3  UNK A          45.653   6.972 -10.119  0.00  0.00    -0.360 OA
ATOM     25  H7  UNK A          46.256   7.064 -10.872  0.00  0.00     0.217 HD
ENDBRANCH   8  24
BRANCH  10  26
ATOM     26  O5  UNK A          42.150  10.162  -9.804  0.00  0.00    -0.361 OA
ATOM     27  H8  UNK A          41.702  10.373  -8.967  0.00  0.00     0.217 HD
ENDBRANCH  10  26
TORSDOF 6
ENDMDL
MODEL 15
REMARK VINA RESULT:      -6.3     21.790     25.938
REMARK  6 active torsions:
REMARK  status: ('A' for Active; 'I' for Inactive)
REMARK    1  A    between atoms: O2_2  and  C5_12 
REMARK    2  A    between atoms: O3_3  and  C7_14 
REMARK    3  A    between atoms: O5_5  and  C9_16 
REMARK    4  A    between atoms: O6_6  and  C13_20 
REMARK    5  A    between atoms: O7_7  and  C15_22 
REMARK    6  A    between atoms: C3_10  and  C4_11 
ROOT
ATOM      1  O1  UNK A          38.826  -9.946   4.856  0.00  0.00    -0.306 OA
ATOM      2  O4  UNK A          36.287 -10.704   1.760  0.00  0.00    -0.284 OA
ATOM      3  C1  UNK A          37.283  -9.107   3.181  0.00  0.00     0.084 A 
ATOM      4  C2  UNK A          38.163  -8.914   4.244  0.00  0.00     0.096 A 
ATOM      5  C3  UNK A          38.622 -11.234   4.388  0.00  0.00     0.123 A 
ATOM      6  C5  UNK A          37.795 -11.556   3.376  0.00  0.00     0.152 A 
ATOM      7  C6  UNK A          37.052 -10.473   2.688  0.00  0.00     0.223 A 
ATOM      8  C7  UNK A          36.634  -8.017   2.597  0.00  0.00     0.085 A 
ATOM      9  C8  UNK A          38.397  -7.628   4.732  0.00  0.00     0.075 A 
ATOM     10  C9  UNK A          37.751  -6.537   4.151  0.00  0.00     0.071 A 
ATOM     11  C11 UNK A          36.870  -6.732   3.086  0.00  0.00     0.074 A 
ENDROOT
BRANCH   5  12
ATOM     12  C4  UNK A          39.394 -12.246   5.131  0.00  0.00     0.004 A 
ATOM     13  C10 UNK A          39.466 -12.185   6.523  0.00  0.00     0.053 A 
ATOM     14  C13 UNK A          40.195 -13.144   7.226  0.00  0.00     0.099 A 
ATOM     15  C15 UNK A          40.854 -14.162   6.537  0.00  0.00     0.098 A 
ATOM     16  C14 UNK A          40.783 -14.223   5.146  0.00  0.00     0.040 A 
ATOM     17  C12 UNK A          40.052 -13.265   4.442  0.00  0.00     0.017 A 
BRANCH  14  18
ATOM     18  O6  UNK A          40.260 -13.074   8.585  0.00  0.00    -0.358 OA
ATOM     19  H9  UNK A          40.269 -13.969   8.960  0.00  0.00     0.217 HD
ENDBRANCH  14  18
BRANCH  15  20
ATOM     20  O7  UNK A          41.569 -15.105   7.214  0.00  0.00    -0.358 OA
ATOM     21  H10 UNK A          41.803 -14.770   8.093  0.00  0.00     0.217 HD
ENDBRANCH  15  20
ENDBRANCH   5  12
BRANCH   6  22
ATOM     22  O2  UNK A          37.589 -12.852   2.956  0.00  0.00    -0.355 OA
ATOM     23  H6  UNK A          37.379 -13.417   3.717  0.00  0.00     0.218 HD
ENDBRANCH   6  22
BRANCH   8  24
ATOM     24  O3  UNK A          35.765  -8.151   1.556  0.00  0.00    -0.360 OA
ATOM     25  H7  UNK A          35.081  -8.804   1.766  0.00  0.00     0.217 HD
ENDBRANCH   8  24
BRANCH  10  26
ATOM     26  O5  UNK A          37.978  -5.282   4.625  0.00  0.00    -0.361 OA
ATOM     27  H8  UNK A          37.127  -4.817   4.710  0.00  0.00     0.217 HD
ENDBRANCH  10  26
TORSDOF 6
ENDMDL
MODEL 16
REMARK VINA RESULT:      -6.3     22.188     23.087
REMARK  6 active torsions:
REMARK  status: ('A' for Active; 'I' for Inactive)
REMARK    1  A    between atoms: O2_2  and  C5_12 
REMARK    2  A    between atoms: O3_3  and  C7_14 
REMARK    3  A    between atoms: O5_5  and  C9_16 
REMARK    4  A    between atoms: O6_6  and  C13_20 
REMARK    5  A    between atoms: O7_7  and  C15_22 
REMARK    6  A    between atoms: C3_10  and  C4_11 
ROOT
ATOM      1  O1  UNK A          38.407  -6.626  -7.119  0.00  0.00    -0.306 OA
ATOM      2  O4  UNK A          36.583  -7.577  -3.601  0.00  0.00    -0.284 OA
ATOM      3  C1  UNK A          36.360  -6.861  -5.837  0.00  0.00     0.084 A 
ATOM      4  C2  UNK A          37.044  -6.549  -7.011  0.00  0.00     0.096 A 
ATOM      5  C3  UNK A          39.136  -7.046  -6.017  0.00  0.00     0.123 A 
ATOM      6  C5  UNK A          38.600  -7.369  -4.826  0.00  0.00     0.152 A 
ATOM      7  C6  UNK A          37.128  -7.295  -4.660  0.00  0.00     0.223 A 
ATOM      8  C7  UNK A          34.967  -6.762  -5.785  0.00  0.00     0.085 A 
ATOM      9  C8  UNK A          36.337  -6.132  -8.140  0.00  0.00     0.075 A 
ATOM     10  C9  UNK A          34.947  -6.032  -8.092  0.00  0.00     0.071 A 
ATOM     11  C11 UNK A          34.264  -6.347  -6.915  0.00  0.00     0.074 A 
ENDROOT
BRANCH   5  12
ATOM     12  C4  UNK A          40.588  -7.085  -6.268  0.00  0.00     0.004 A 
ATOM     13  C10 UNK A          41.093  -7.830  -7.334  0.00  0.00     0.053 A 
ATOM     14  C13 UNK A          42.466  -7.866  -7.573  0.00  0.00     0.099 A 
ATOM     15  C15 UNK A          43.336  -7.158  -6.743  0.00  0.00     0.098 A 
ATOM     16  C14 UNK A          42.832  -6.413  -5.677  0.00  0.00     0.040 A 
ATOM     17  C12 UNK A          41.458  -6.377  -5.439  0.00  0.00     0.017 A 
BRANCH  14  18
ATOM     18  O6  UNK A          42.947  -8.597  -8.615  0.00  0.00    -0.358 OA
ATOM     19  H9  UNK A          42.582  -8.260  -9.449  0.00  0.00     0.217 HD
ENDBRANCH  14  18
BRANCH  15  20
ATOM     20  O7  UNK A          44.680  -7.184  -6.966  0.00  0.00    -0.358 OA
ATOM     21  H10 UNK A          44.882  -6.733  -7.801  0.00  0.00     0.217 HD
ENDBRANCH  15  20
ENDBRANCH   5  12
BRANCH   6  22
ATOM     22  O2  UNK A          39.356  -7.752  -3.739  0.00  0.00    -0.355 OA
ATOM     23  H6  UNK A          39.007  -7.338  -2.932  0.00  0.00     0.218 HD
ENDBRANCH   6  22
BRANCH   8  24
ATOM     24  O3  UNK A          34.252  -7.055  -4.663  0.00  0.00    -0.360 OA
ATOM     25  H7  UNK A          34.652  -7.800  -4.190  0.00  0.00     0.217 HD
ENDBRANCH   8  24
BRANCH  10  26
ATOM     26  O5  UNK A          34.256  -5.627  -9.191  0.00  0.00    -0.361 OA
ATOM     27  H8  UNK A          34.851  -5.640  -9.961  0.00  0.00     0.217 HD
ENDBRANCH  10  26
TORSDOF 6
ENDMDL
MODEL 17
REMARK VINA RESULT:      -6.3     15.575     17.930
REMARK  6 active torsions:
REMARK  status: ('A' for Active; 'I' for Inactive)
REMARK    1  A    between atoms: O2_2  and  C5_12 
REMARK    2  A    between atoms: O3_3  and  C7_14 
REMARK    3  A    between atoms: O5_5  and  C9_16 
REMARK    4  A    between atoms: O6_6  and  C13_20 
REMARK    5  A    between atoms: O7_7  and  C15_22 
REMARK    6  A    between atoms: C3_10  and  C4_11 
ROOT
ATOM      1  O1  UNK A          43.940  -0.059   9.161  0.00  0.00    -0.306 OA
ATOM      2  O4  UNK A          40.961   2.071   7.372  0.00  0.00    -0.284 OA
ATOM      3  C1  UNK A          41.581   0.183   8.641  0.00  0.00     0.084 A 
ATOM      4  C2  UNK A          42.644  -0.500   9.230  0.00  0.00     0.096 A 
ATOM      5  C3  UNK A          44.201   1.124   8.488  0.00  0.00     0.123 A 
ATOM      6  C5  UNK A          43.269   1.872   7.870  0.00  0.00     0.152 A 
ATOM      7  C6  UNK A          41.854   1.432   7.914  0.00  0.00     0.223 A 
ATOM      8  C7  UNK A          40.280  -0.316   8.743  0.00  0.00     0.085 A 
ATOM      9  C8  UNK A          42.411  -1.688   9.924  0.00  0.00     0.075 A 
ATOM     10  C9  UNK A          41.113  -2.189  10.028  0.00  0.00     0.071 A 
ATOM     11  C11 UNK A          40.050  -1.503   9.438  0.00  0.00     0.074 A 
ENDROOT
BRANCH   5  12
ATOM     12  C4  UNK A          45.630   1.483   8.489  0.00  0.00     0.004 A 
ATOM     13  C10 UNK A          46.292   1.722   7.285  0.00  0.00     0.053 A 
ATOM     14  C13 UNK A          47.644   2.063   7.287  0.00  0.00     0.099 A 
ATOM     15  C15 UNK A          48.336   2.163   8.495  0.00  0.00     0.098 A 
ATOM     16  C14 UNK A          47.675   1.923   9.699  0.00  0.00     0.040 A 
ATOM     17  C12 UNK A          46.322   1.583   9.697  0.00  0.00     0.017 A 
BRANCH  14  18
ATOM     18  O6  UNK A          48.280   2.294   6.105  0.00  0.00    -0.358 OA
ATOM     19  H9  UNK A          47.922   1.706   5.420  0.00  0.00     0.217 HD
ENDBRANCH  14  18
BRANCH  15  20
ATOM     20  O7  UNK A          49.657   2.497   8.510  0.00  0.00    -0.358 OA
ATOM     21  H10 UNK A          49.778   3.373   8.112  0.00  0.00     0.217 HD
ENDBRANCH  15  20
ENDBRANCH   5  12
BRANCH   6  22
ATOM     22  O2  UNK A          43.567   3.027   7.180  0.00  0.00    -0.355 OA
ATOM     23  H6  UNK A          42.846   3.240   6.565  0.00  0.00     0.218 HD
ENDBRANCH   6  22
BRANCH   8  24
ATOM     24  O3  UNK A          39.207   0.313   8.186  0.00  0.00    -0.360 OA
ATOM     25  H7  UNK A          38.392  -0.179   8.369  0.00  0.00     0.217 HD
ENDBRANCH   8  24
BRANCH  10  26
ATOM     26  O5  UNK A          40.884  -3.347  10.704  0.00  0.00    -0.361 OA
ATOM     27  H8  UNK A          40.881  -4.087  10.072  0.00  0.00     0.217 HD
ENDBRANCH  10  26
TORSDOF 6
ENDMDL
MODEL 18
REMARK VINA RESULT:      -6.2     14.978     16.971
REMARK  6 active torsions:
REMARK  status: ('A' for Active; 'I' for Inactive)
REMARK    1  A    between atoms: O2_2  and  C5_12 
REMARK    2  A    between atoms: O3_3  and  C7_14 
REMARK    3  A    between atoms: O5_5  and  C9_16 
REMARK    4  A    between atoms: O6_6  and  C13_20 
REMARK    5  A    between atoms: O7_7  and  C15_22 
REMARK    6  A    between atoms: C3_10  and  C4_11 
ROOT
ATOM      1  O1  UNK A          42.825   2.096   7.725  0.00  0.00    -0.306 OA
ATOM      2  O4  UNK A          42.291  -1.353   9.828  0.00  0.00    -0.284 OA
ATOM      3  C1  UNK A          41.353   0.303   8.437  0.00  0.00     0.084 A 
ATOM      4  C2  UNK A          41.600   1.484   7.739  0.00  0.00     0.096 A 
ATOM      5  C3  UNK A          43.867   1.508   8.425  0.00  0.00     0.123 A 
ATOM      6  C5  UNK A          43.759   0.375   9.144  0.00  0.00     0.152 A 
ATOM      7  C6  UNK A          42.450  -0.319   9.193  0.00  0.00     0.223 A 
ATOM      8  C7  UNK A          40.081  -0.275   8.416  0.00  0.00     0.085 A 
ATOM      9  C8  UNK A          40.574   2.095   7.017  0.00  0.00     0.075 A 
ATOM     10  C9  UNK A          39.303   1.520   6.993  0.00  0.00     0.071 A 
ATOM     11  C11 UNK A          39.058   0.337   7.693  0.00  0.00     0.074 A 
ENDROOT
BRANCH   5  12
ATOM     12  C4  UNK A          45.127   2.266   8.327  0.00  0.00     0.004 A 
ATOM     13  C10 UNK A          46.026   1.996   7.295  0.00  0.00     0.053 A 
ATOM     14  C13 UNK A          47.217   2.714   7.201  0.00  0.00     0.099 A 
ATOM     15  C15 UNK A          47.511   3.702   8.142  0.00  0.00     0.098 A 
ATOM     16  C14 UNK A          46.613   3.972   9.174  0.00  0.00     0.040 A 
ATOM     17  C12 UNK A          45.421   3.254   9.267  0.00  0.00     0.017 A 
BRANCH  14  18
ATOM     18  O6  UNK A          48.088   2.442   6.190  0.00  0.00    -0.358 OA
ATOM     19  H9  UNK A          48.897   2.043   6.552  0.00  0.00     0.217 HD
ENDBRANCH  14  18
BRANCH  15  20
ATOM     20  O7  UNK A          48.672   4.412   8.060  0.00  0.00    -0.358 OA
ATOM     21  H10 UNK A          48.879   4.801   8.925  0.00  0.00     0.217 HD
ENDBRANCH  15  20
ENDBRANCH   5  12
BRANCH   6  22
ATOM     22  O2  UNK A          44.807  -0.167   9.856  0.00  0.00    -0.355 OA
ATOM     23  H6  UNK A          45.136   0.479  10.503  0.00  0.00     0.218 HD
ENDBRANCH   6  22
BRANCH   8  24
ATOM     24  O3  UNK A          39.787  -1.428   9.081  0.00  0.00    -0.360 OA
ATOM     25  H7  UNK A          39.669  -2.160   8.457  0.00  0.00     0.217 HD
ENDBRANCH   8  24
BRANCH  10  26
ATOM     26  O5  UNK A          38.302   2.114   6.290  0.00  0.00    -0.361 OA
ATOM     27  H8  UNK A          38.049   1.535   5.550  0.00  0.00     0.217 HD
ENDBRANCH  10  26
TORSDOF 6
ENDMDL
MODEL 19
REMARK VINA RESULT:      -6.2     15.892     18.496
REMARK  6 active torsions:
REMARK  status: ('A' for Active; 'I' for Inactive)
REMARK    1  A    between atoms: O2_2  and  C5_12 
REMARK    2  A    between atoms: O3_3  and  C7_14 
REMARK    3  A    between atoms: O5_5  and  C9_16 
REMARK    4  A    between atoms: O6_6  and  C13_20 
REMARK    5  A    between atoms: O7_7  and  C15_22 
REMARK    6  A    between atoms: C3_10  and  C4_11 
ROOT
ATOM      1  O1  UNK A          40.822  -1.431   8.577  0.00  0.00    -0.306 OA
ATOM      2  O4  UNK A          39.208   2.274   8.050  0.00  0.00    -0.284 OA
ATOM      3  C1  UNK A          41.061   0.979   8.725  0.00  0.00     0.084 A 
ATOM      4  C2  UNK A          41.554  -0.314   8.883  0.00  0.00     0.096 A 
ATOM      5  C3  UNK A          39.540  -1.266   8.075  0.00  0.00     0.123 A 
ATOM      6  C5  UNK A          38.945  -0.075   7.883  0.00  0.00     0.152 A 
ATOM      7  C6  UNK A          39.697   1.162   8.206  0.00  0.00     0.223 A 
ATOM      8  C7  UNK A          41.853   2.081   9.056  0.00  0.00     0.085 A 
ATOM      9  C8  UNK A          42.844  -0.513   9.377  0.00  0.00     0.075 A 
ATOM     10  C9  UNK A          43.638   0.585   9.708  0.00  0.00     0.071 A 
ATOM     11  C11 UNK A          43.142   1.880   9.547  0.00  0.00     0.074 A 
ENDROOT
BRANCH   5  12
ATOM     12  C4  UNK A          38.866  -2.544   7.788  0.00  0.00     0.004 A 
ATOM     13  C10 UNK A          38.914  -3.086   6.503  0.00  0.00     0.053 A 
ATOM     14  C13 UNK A          38.276  -4.296   6.232  0.00  0.00     0.099 A 
ATOM     15  C15 UNK A          37.588  -4.964   7.245  0.00  0.00     0.098 A 
ATOM     16  C14 UNK A          37.540  -4.423   8.530  0.00  0.00     0.040 A 
ATOM     17  C12 UNK A          38.178  -3.213   8.801  0.00  0.00     0.017 A 
BRANCH  14  18
ATOM     18  O6  UNK A          38.329  -4.815   4.974  0.00  0.00    -0.358 OA
ATOM     19  H9  UNK A          38.065  -5.749   4.992  0.00  0.00     0.217 HD
ENDBRANCH  14  18
BRANCH  15  20
ATOM     20  O7  UNK A          36.962  -6.148   6.993  0.00  0.00    -0.358 OA
ATOM     21  H10 UNK A          36.081  -5.980   6.625  0.00  0.00     0.217 HD
ENDBRANCH  15  20
ENDBRANCH   5  12
BRANCH   6  22
ATOM     22  O2  UNK A          37.656   0.055   7.413  0.00  0.00    -0.355 OA
ATOM     23  H6  UNK A          37.590   0.837   6.841  0.00  0.00     0.218 HD
ENDBRANCH   6  22
BRANCH   8  24
ATOM     24  O3  UNK A          41.419   3.366   8.919  0.00  0.00    -0.360 OA
ATOM     25  H7  UNK A          42.168   3.980   8.919  0.00  0.00     0.217 HD
ENDBRANCH   8  24
BRANCH  10  26
ATOM     26  O5  UNK A          44.896   0.393  10.188  0.00  0.00    -0.361 OA
ATOM     27  H8  UNK A          45.201   1.213  10.613  0.00  0.00     0.217 HD
ENDBRANCH  10  26
TORSDOF 6
ENDMDL
