MODEL 1
REMARK VINA RESULT:      -6.9      0.000      0.000
REMARK  6 active torsions:
REMARK  status: ('A' for Active; 'I' for Inactive)
REMARK    1  A    between atoms: O2_2  and  C5_12 
REMARK    2  A    between atoms: O3_3  and  C7_14 
REMARK    3  A    between atoms: O5_5  and  C9_16 
REMARK    4  A    between atoms: O6_6  and  C13_20 
REMARK    5  A    between atoms: O7_7  and  C15_22 
REMARK    6  A    between atoms: C3_10  and  C4_11 
ROOT
ATOM      1  O1  UNK A          39.625  14.624   0.065  0.00  0.00    -0.306 OA
ATOM      2  O4  UNK A          42.277  13.251  -2.708  0.00  0.00    -0.284 OA
ATOM      3  C1  UNK A          40.921  12.781  -0.836  0.00  0.00     0.084 A 
ATOM      4  C2  UNK A          40.019  13.312   0.084  0.00  0.00     0.096 A 
ATOM      5  C3  UNK A          40.135  15.455  -0.920  0.00  0.00     0.123 A 
ATOM      6  C5  UNK A          41.018  15.070  -1.861  0.00  0.00     0.152 A 
ATOM      7  C6  UNK A          41.477  13.660  -1.876  0.00  0.00     0.223 A 
ATOM      8  C7  UNK A          41.288  11.435  -0.767  0.00  0.00     0.085 A 
ATOM      9  C8  UNK A          39.480  12.499   1.081  0.00  0.00     0.075 A 
ATOM     10  C9  UNK A          39.844  11.154   1.153  0.00  0.00     0.071 A 
ATOM     11  C11 UNK A          40.747  10.624   0.230  0.00  0.00     0.074 A 
ENDROOT
BRANCH   5  12
ATOM     12  C4  UNK A          39.630  16.836  -0.827  0.00  0.00     0.004 A 
ATOM     13  C10 UNK A          38.761  17.194   0.203  0.00  0.00     0.053 A 
ATOM     14  C13 UNK A          38.284  18.501   0.292  0.00  0.00     0.099 A 
ATOM     15  C15 UNK A          38.676  19.452  -0.652  0.00  0.00     0.098 A 
ATOM     16  C14 UNK A          39.545  19.094  -1.682  0.00  0.00     0.040 A 
ATOM     17  C12 UNK A          40.022  17.787  -1.770  0.00  0.00     0.017 A 
BRANCH  14  18
ATOM     18  O6  UNK A          37.435  18.839   1.302  0.00  0.00    -0.358 OA
ATOM     19  H9  UNK A          36.564  18.439   1.146  0.00  0.00     0.217 HD
ENDBRANCH  14  18
BRANCH  15  20
ATOM     20  O7  UNK A          38.218  20.733  -0.575  0.00  0.00    -0.358 OA
ATOM     21  H10 UNK A          38.102  21.093  -1.468  0.00  0.00     0.217 HD
ENDBRANCH  15  20
ENDBRANCH   5  12
BRANCH   6  22
ATOM     22  O2  UNK A          41.532  15.929  -2.807  0.00  0.00    -0.355 OA
ATOM     23  H6  UNK A          40.846  16.153  -3.457  0.00  0.00     0.218 HD
ENDBRANCH   6  22
BRANCH   8  24
ATOM     24  O3  UNK A          42.165  10.867  -1.642  0.00  0.00    -0.360 OA
ATOM     25  H7  UNK A          42.529  10.047  -1.275  0.00  0.00     0.217 HD
ENDBRANCH   8  24
BRANCH  10  26
ATOM     26  O5  UNK A          39.319  10.359   2.124  0.00  0.00    -0.361 OA
ATOM     27  H8  UNK A          39.699   9.467   2.043  0.00  0.00     0.217 HD
ENDBRANCH  10  26
TORSDOF 6
ENDMDL
MODEL 2
REMARK VINA RESULT:      -6.9      1.344      6.652
REMARK  6 active torsions:
REMARK  status: ('A' for Active; 'I' for Inactive)
REMARK    1  A    between atoms: O2_2  and  C5_12 
REMARK    2  A    between atoms: O3_3  and  C7_14 
REMARK    3  A    between atoms: O5_5  and  C9_16 
REMARK    4  A    between atoms: O6_6  and  C13_20 
REMARK    5  A    between atoms: O7_7  and  C15_22 
REMARK    6  A    between atoms: C3_10  and  C4_11 
ROOT
ATOM      1  O1  UNK A          39.400  16.341  -0.226  0.00  0.00    -0.306 OA
ATOM      2  O4  UNK A          40.597  18.768  -3.273  0.00  0.00    -0.284 OA
ATOM      3  C1  UNK A          39.423  18.546  -1.240  0.00  0.00     0.084 A 
ATOM      4  C2  UNK A          39.045  17.665  -0.228  0.00  0.00     0.096 A 
ATOM      5  C3  UNK A          40.180  15.863  -1.267  0.00  0.00     0.123 A 
ATOM      6  C5  UNK A          40.604  16.605  -2.306  0.00  0.00     0.152 A 
ATOM      7  C6  UNK A          40.240  18.042  -2.354  0.00  0.00     0.223 A 
ATOM      8  C7  UNK A          39.030  19.886  -1.190  0.00  0.00     0.085 A 
ATOM      9  C8  UNK A          38.268  18.118   0.838  0.00  0.00     0.075 A 
ATOM     10  C9  UNK A          37.873  19.455   0.891  0.00  0.00     0.071 A 
ATOM     11  C11 UNK A          38.254  20.337  -0.122  0.00  0.00     0.074 A 
ENDROOT
BRANCH   5  12
ATOM     12  C4  UNK A          40.490  14.428  -1.141  0.00  0.00     0.004 A 
ATOM     13  C10 UNK A          39.617  13.582  -0.456  0.00  0.00     0.053 A 
ATOM     14  C13 UNK A          39.910  12.224  -0.339  0.00  0.00     0.099 A 
ATOM     15  C15 UNK A          41.077  11.710  -0.905  0.00  0.00     0.098 A 
ATOM     16  C14 UNK A          41.950  12.556  -1.590  0.00  0.00     0.040 A 
ATOM     17  C12 UNK A          41.657  13.914  -1.709  0.00  0.00     0.017 A 
BRANCH  14  18
ATOM     18  O6  UNK A          39.051  11.408   0.334  0.00  0.00    -0.358 OA
ATOM     19  H9  UNK A          39.551  10.716   0.797  0.00  0.00     0.217 HD
ENDBRANCH  14  18
BRANCH  15  20
ATOM     20  O7  UNK A          41.374  10.385  -0.798  0.00  0.00    -0.358 OA
ATOM     21  H10 UNK A          42.217  10.274  -0.332  0.00  0.00     0.217 HD
ENDBRANCH  15  20
ENDBRANCH   5  12
BRANCH   6  22
ATOM     22  O2  UNK A          41.352  16.091  -3.343  0.00  0.00    -0.355 OA
ATOM     23  H6  UNK A          40.766  15.809  -4.064  0.00  0.00     0.218 HD
ENDBRANCH   6  22
BRANCH   8  24
ATOM     24  O3  UNK A          39.373  20.788  -2.152  0.00  0.00    -0.360 OA
ATOM     25  H7  UNK A          40.309  21.026  -2.077  0.00  0.00     0.217 HD
ENDBRANCH   8  24
BRANCH  10  26
ATOM     26  O5  UNK A          37.117  19.900   1.930  0.00  0.00    -0.361 OA
ATOM     27  H8  UNK A          37.469  20.754   2.235  0.00  0.00     0.217 HD
ENDBRANCH  10  26
TORSDOF 6
ENDMDL
MODEL 3
REMARK VINA RESULT:      -6.5     10.059     11.583
REMARK  6 active torsions:
REMARK  status: ('A' for Active; 'I' for Inactive)
REMARK    1  A    between atoms: O2_2  and  C5_12 
REMARK    2  A    between atoms: O3_3  and  C7_14 
REMARK    3  A    between atoms: O5_5  and  C9_16 
REMARK    4  A    between atoms: O6_6  and  C13_20 
REMARK    5  A    between atoms: O7_7  and  C15_22 
REMARK    6  A    between atoms: C3_10  and  C4_11 
ROOT
ATOM      1  O1  UNK A          46.265  11.285  -7.459  0.00  0.00    -0.306 OA
ATOM      2  O4  UNK A          48.273  12.072 -10.917  0.00  0.00    -0.284 OA
ATOM      3  C1  UNK A          46.268  11.383  -9.884  0.00  0.00     0.084 A 
ATOM      4  C2  UNK A          45.638  11.130  -8.668  0.00  0.00     0.096 A 
ATOM      5  C3  UNK A          47.579  11.726  -7.448  0.00  0.00     0.123 A 
ATOM      6  C5  UNK A          48.302  11.997  -8.550  0.00  0.00     0.152 A 
ATOM      7  C6  UNK A          47.667  11.839  -9.880  0.00  0.00     0.223 A 
ATOM      8  C7  UNK A          45.578  11.206 -11.086  0.00  0.00     0.085 A 
ATOM      9  C8  UNK A          44.312  10.694  -8.646  0.00  0.00     0.075 A 
ATOM     10  C9  UNK A          43.620  10.516  -9.844  0.00  0.00     0.071 A 
ATOM     11  C11 UNK A          44.253  10.772 -11.062  0.00  0.00     0.074 A 
ENDROOT
BRANCH   5  12
ATOM     12  C4  UNK A          48.132  11.850  -6.088  0.00  0.00     0.004 A 
ATOM     13  C10 UNK A          48.145  13.090  -5.449  0.00  0.00     0.053 A 
ATOM     14  C13 UNK A          48.667  13.207  -4.161  0.00  0.00     0.099 A 
ATOM     15  C15 UNK A          49.179  12.084  -3.512  0.00  0.00     0.098 A 
ATOM     16  C14 UNK A          49.167  10.844  -4.150  0.00  0.00     0.040 A 
ATOM     17  C12 UNK A          48.644  10.726  -5.438  0.00  0.00     0.017 A 
BRANCH  14  18
ATOM     18  O6  UNK A          48.675  14.423  -3.548  0.00  0.00    -0.358 OA
ATOM     19  H9  UNK A          48.907  15.113  -4.191  0.00  0.00     0.217 HD
ENDBRANCH  14  18
BRANCH  15  20
ATOM     20  O7  UNK A          49.691  12.185  -2.253  0.00  0.00    -0.358 OA
ATOM     21  H10 UNK A          50.218  12.996  -2.178  0.00  0.00     0.217 HD
ENDBRANCH  15  20
ENDBRANCH   5  12
BRANCH   6  22
ATOM     22  O2  UNK A          49.619  12.403  -8.505  0.00  0.00    -0.355 OA
ATOM     23  H6  UNK A          50.112  12.006  -9.241  0.00  0.00     0.218 HD
ENDBRANCH   6  22
BRANCH   8  24
ATOM     24  O3  UNK A          46.148  11.440 -12.302  0.00  0.00    -0.360 OA
ATOM     25  H7  UNK A          47.097  11.613 -12.205  0.00  0.00     0.217 HD
ENDBRANCH   8  24
BRANCH  10  26
ATOM     26  O5  UNK A          42.328  10.092  -9.825  0.00  0.00    -0.361 OA
ATOM     27  H8  UNK A          41.782  10.761  -9.377  0.00  0.00     0.217 HD
ENDBRANCH  10  26
TORSDOF 6
ENDMDL
MODEL 4
REMARK VINA RESULT:      -6.5     10.294     11.581
REMARK  6 active torsions:
REMARK  status: ('A' for Active; 'I' for Inactive)
REMARK    1  A    between atoms: O2_2  and  C5_12 
REMARK    2  A    between atoms: O3_3  and  C7_14 
REMARK    3  A    between atoms: O5_5  and  C9_16 
REMARK    4  A    between atoms: O6_6  and  C13_20 
REMARK    5  A    between atoms: O7_7  and  C15_22 
REMARK    6  A    between atoms: C3_10  and  C4_11 
ROOT
ATOM      1  O1  UNK A          46.260  11.267  -8.006  0.00  0.00    -0.306 OA
ATOM      2  O4  UNK A          47.728   7.569  -8.885  0.00  0.00    -0.284 OA
ATOM      3  C1  UNK A          45.936   9.094  -9.036  0.00  0.00     0.084 A 
ATOM      4  C2  UNK A          45.492  10.372  -8.704  0.00  0.00     0.096 A 
ATOM      5  C3  UNK A          47.538  10.888  -7.627  0.00  0.00     0.123 A 
ATOM      6  C5  UNK A          48.082   9.683  -7.878  0.00  0.00     0.152 A 
ATOM      7  C6  UNK A          47.286   8.680  -8.626  0.00  0.00     0.223 A 
ATOM      8  C7  UNK A          45.107   8.223  -9.749  0.00  0.00     0.085 A 
ATOM      9  C8  UNK A          44.213  10.787  -9.080  0.00  0.00     0.075 A 
ATOM     10  C9  UNK A          43.383   9.920  -9.792  0.00  0.00     0.071 A 
ATOM     11  C11 UNK A          43.831   8.641 -10.125  0.00  0.00     0.074 A 
ENDROOT
BRANCH   5  12
ATOM     12  C4  UNK A          48.254  11.941  -6.885  0.00  0.00     0.004 A 
ATOM     13  C10 UNK A          48.092  12.057  -5.505  0.00  0.00     0.053 A 
ATOM     14  C13 UNK A          48.771  13.053  -4.803  0.00  0.00     0.099 A 
ATOM     15  C15 UNK A          49.612  13.934  -5.483  0.00  0.00     0.098 A 
ATOM     16  C14 UNK A          49.775  13.819  -6.863  0.00  0.00     0.040 A 
ATOM     17  C12 UNK A          49.096  12.822  -7.565  0.00  0.00     0.017 A 
BRANCH  14  18
ATOM     18  O6  UNK A          48.603  13.158  -3.456  0.00  0.00    -0.358 OA
ATOM     19  H9  UNK A          49.233  12.576  -3.000  0.00  0.00     0.217 HD
ENDBRANCH  14  18
BRANCH  15  20
ATOM     20  O7  UNK A          50.282  14.910  -4.809  0.00  0.00    -0.358 OA
ATOM     21  H10 UNK A          50.631  14.553  -3.977  0.00  0.00     0.217 HD
ENDBRANCH  15  20
ENDBRANCH   5  12
BRANCH   6  22
ATOM     22  O2  UNK A          49.345   9.325  -7.458  0.00  0.00    -0.355 OA
ATOM     23  H6  UNK A          49.364   8.380  -7.237  0.00  0.00     0.218 HD
ENDBRANCH   6  22
BRANCH   8  24
ATOM     24  O3  UNK A          45.493   6.964 -10.099  0.00  0.00    -0.360 OA
ATOM     25  H7  UNK A          45.951   6.974 -10.953  0.00  0.00     0.217 HD
ENDBRANCH   8  24
BRANCH  10  26
ATOM     26  O5  UNK A          42.137  10.323 -10.160  0.00  0.00    -0.361 OA
ATOM     27  H8  UNK A          41.499  10.033  -9.485  0.00  0.00     0.217 HD
ENDBRANCH  10  26
TORSDOF 6
ENDMDL
MODEL 5
REMARK VINA RESULT:      -6.2      9.746     11.493
REMARK  6 active torsions:
REMARK  status: ('A' for Active; 'I' for Inactive)
REMARK    1  A    between atoms: O2_2  and  C5_12 
REMARK    2  A    between atoms: O3_3  and  C7_14 
REMARK    3  A    between atoms: O5_5  and  C9_16 
REMARK    4  A    between atoms: O6_6  and  C13_20 
REMARK    5  A    between atoms: O7_7  and  C15_22 
REMARK    6  A    between atoms: C3_10  and  C4_11 
ROOT
ATOM      1  O1  UNK A          45.871  11.143  -7.858  0.00  0.00    -0.306 OA
ATOM      2  O4  UNK A          47.904   7.893  -9.242  0.00  0.00    -0.284 OA
ATOM      3  C1  UNK A          45.923   9.172  -9.274  0.00  0.00     0.084 A 
ATOM      4  C2  UNK A          45.281  10.298  -8.762  0.00  0.00     0.096 A 
ATOM      5  C3  UNK A          47.166  10.871  -7.446  0.00  0.00     0.123 A 
ATOM      6  C5  UNK A          47.892   9.814  -7.857  0.00  0.00     0.152 A 
ATOM      7  C6  UNK A          47.292   8.871  -8.831  0.00  0.00     0.223 A 
ATOM      8  C7  UNK A          45.271   8.346 -10.193  0.00  0.00     0.085 A 
ATOM      9  C8  UNK A          43.981  10.604  -9.166  0.00  0.00     0.075 A 
ATOM     10  C9  UNK A          43.327   9.782 -10.083  0.00  0.00     0.071 A 
ATOM     11  C11 UNK A          43.971   8.655 -10.595  0.00  0.00     0.074 A 
ENDROOT
BRANCH   5  12
ATOM     12  C4  UNK A          47.680  11.854  -6.476  0.00  0.00     0.004 A 
ATOM     13  C10 UNK A          48.571  12.844  -6.890  0.00  0.00     0.053 A 
ATOM     14  C13 UNK A          49.055  13.776  -5.973  0.00  0.00     0.099 A 
ATOM     15  C15 UNK A          48.651  13.716  -4.639  0.00  0.00     0.098 A 
ATOM     16  C14 UNK A          47.760  12.726  -4.224  0.00  0.00     0.040 A 
ATOM     17  C12 UNK A          47.274  11.795  -5.142  0.00  0.00     0.017 A 
BRANCH  14  18
ATOM     18  O6  UNK A          49.926  14.737  -6.388  0.00  0.00    -0.358 OA
ATOM     19  H9  UNK A          50.355  15.146  -5.619  0.00  0.00     0.217 HD
ENDBRANCH  14  18
BRANCH  15  20
ATOM     20  O7  UNK A          49.116  14.621  -3.733  0.00  0.00    -0.358 OA
ATOM     21  H10 UNK A          48.651  15.465  -3.845  0.00  0.00     0.217 HD
ENDBRANCH  15  20
ENDBRANCH   5  12
BRANCH   6  22
ATOM     22  O2  UNK A          49.166   9.554  -7.403  0.00  0.00    -0.355 OA
ATOM     23  H6  UNK A          49.138   9.310  -6.463  0.00  0.00     0.218 HD
ENDBRANCH   6  22
BRANCH   8  24
ATOM     24  O3  UNK A          45.853   7.234 -10.724  0.00  0.00    -0.360 OA
ATOM     25  H7  UNK A          46.564   7.481 -11.334  0.00  0.00     0.217 HD
ENDBRANCH   8  24
BRANCH  10  26
ATOM     26  O5  UNK A          42.059  10.079 -10.478  0.00  0.00    -0.361 OA
ATOM     27  H8  UNK A          42.086  10.844 -11.078  0.00  0.00     0.217 HD
ENDBRANCH  10  26
TORSDOF 6
ENDMDL
MODEL 6
REMARK VINA RESULT:      -6.1      9.766     11.387
REMARK  6 active torsions:
REMARK  status: ('A' for Active; 'I' for Inactive)
REMARK    1  A    between atoms: O2_2  and  C5_12 
REMARK    2  A    between atoms: O3_3  and  C7_14 
REMARK    3  A    between atoms: O5_5  and  C9_16 
REMARK    4  A    between atoms: O6_6  and  C13_20 
REMARK    5  A    between atoms: O7_7  and  C15_22 
REMARK    6  A    between atoms: C3_10  and  C4_11 
ROOT
ATOM      1  O1  UNK A          46.102  10.956  -7.654  0.00  0.00    -0.306 OA
ATOM      2  O4  UNK A          48.727   8.501  -9.575  0.00  0.00    -0.284 OA
ATOM      3  C1  UNK A          46.495   9.206  -9.288  0.00  0.00     0.084 A 
ATOM      4  C2  UNK A          45.649  10.071  -8.596  0.00  0.00     0.096 A 
ATOM      5  C3  UNK A          47.462  11.003  -7.388  0.00  0.00     0.123 A 
ATOM      6  C5  UNK A          48.382  10.218  -7.980  0.00  0.00     0.152 A 
ATOM      7  C6  UNK A          47.937   9.241  -9.002  0.00  0.00     0.223 A 
ATOM      8  C7  UNK A          45.976   8.322 -10.237  0.00  0.00     0.085 A 
ATOM      9  C8  UNK A          44.277  10.054  -8.847  0.00  0.00     0.075 A 
ATOM     10  C9  UNK A          43.755   9.174  -9.795  0.00  0.00     0.071 A 
ATOM     11  C11 UNK A          44.604   8.309 -10.488  0.00  0.00     0.074 A 
ENDROOT
BRANCH   5  12
ATOM     12  C4  UNK A          47.814  11.996  -6.359  0.00  0.00     0.004 A 
ATOM     13  C10 UNK A          48.028  11.592  -5.041  0.00  0.00     0.053 A 
ATOM     14  C13 UNK A          48.362  12.532  -4.067  0.00  0.00     0.099 A 
ATOM     15  C15 UNK A          48.481  13.879  -4.410  0.00  0.00     0.098 A 
ATOM     16  C14 UNK A          48.267  14.284  -5.727  0.00  0.00     0.040 A 
ATOM     17  C12 UNK A          47.934  13.344  -6.702  0.00  0.00     0.017 A 
BRANCH  14  18
ATOM     18  O6  UNK A          48.567  12.125  -2.784  0.00  0.00    -0.358 OA
ATOM     19  H9  UNK A          49.035  12.818  -2.290  0.00  0.00     0.217 HD
ENDBRANCH  14  18
BRANCH  15  20
ATOM     20  O7  UNK A          48.808  14.807  -3.468  0.00  0.00    -0.358 OA
ATOM     21  H10 UNK A          48.674  14.435  -2.582  0.00  0.00     0.217 HD
ENDBRANCH  15  20
ENDBRANCH   5  12
BRANCH   6  22
ATOM     22  O2  UNK A          49.724  10.267  -7.670  0.00  0.00    -0.355 OA
ATOM     23  H6  UNK A          50.206   9.602  -8.188  0.00  0.00     0.218 HD
ENDBRANCH   6  22
BRANCH   8  24
ATOM     24  O3  UNK A          46.759   7.457 -10.941  0.00  0.00    -0.360 OA
ATOM     25  H7  UNK A          47.420   7.941 -11.459  0.00  0.00     0.217 HD
ENDBRANCH   8  24
BRANCH  10  26
ATOM     26  O5  UNK A          42.417   9.157 -10.042  0.00  0.00    -0.361 OA
ATOM     27  H8  UNK A          42.158  10.007 -10.438  0.00  0.00     0.217 HD
ENDBRANCH  10  26
TORSDOF 6
ENDMDL
MODEL 7
REMARK VINA RESULT:      -6.1     10.056     11.634
REMARK  6 active torsions:
REMARK  status: ('A' for Active; 'I' for Inactive)
REMARK    1  A    between atoms: O2_2  and  C5_12 
REMARK    2  A    between atoms: O3_3  and  C7_14 
REMARK    3  A    between atoms: O5_5  and  C9_16 
REMARK    4  A    between atoms: O6_6  and  C13_20 
REMARK    5  A    between atoms: O7_7  and  C15_22 
REMARK    6  A    between atoms: C3_10  and  C4_11 
ROOT
ATOM      1  O1  UNK A          46.951  11.986  -7.185  0.00  0.00    -0.306 OA
ATOM      2  O4  UNK A          49.655   8.966  -6.769  0.00  0.00    -0.284 OA
ATOM      3  C1  UNK A          48.859  11.052  -6.011  0.00  0.00     0.084 A 
ATOM      4  C2  UNK A          47.907  12.051  -6.206  0.00  0.00     0.096 A 
ATOM      5  C3  UNK A          46.922  10.871  -8.008  0.00  0.00     0.123 A 
ATOM      6  C5  UNK A          47.786   9.843  -7.931  0.00  0.00     0.152 A 
ATOM      7  C6  UNK A          48.842   9.872  -6.890  0.00  0.00     0.223 A 
ATOM      8  C7  UNK A          49.812  11.174  -4.997  0.00  0.00     0.085 A 
ATOM      9  C8  UNK A          47.905  13.181  -5.387  0.00  0.00     0.075 A 
ATOM     10  C9  UNK A          48.854  13.306  -4.373  0.00  0.00     0.071 A 
ATOM     11  C11 UNK A          49.806  12.303  -4.179  0.00  0.00     0.074 A 
ENDROOT
BRANCH   5  12
ATOM     12  C4  UNK A          45.847  10.927  -9.015  0.00  0.00     0.004 A 
ATOM     13  C10 UNK A          44.607  10.346  -8.747  0.00  0.00     0.053 A 
ATOM     14  C13 UNK A          43.590  10.401  -9.699  0.00  0.00     0.099 A 
ATOM     15  C15 UNK A          43.813  11.035 -10.922  0.00  0.00     0.098 A 
ATOM     16  C14 UNK A          45.053  11.616 -11.191  0.00  0.00     0.040 A 
ATOM     17  C12 UNK A          46.070  11.562 -10.238  0.00  0.00     0.017 A 
BRANCH  14  18
ATOM     18  O6  UNK A          42.385   9.829  -9.427  0.00  0.00    -0.358 OA
ATOM     19  H9  UNK A          41.902  10.372  -8.782  0.00  0.00     0.217 HD
ENDBRANCH  14  18
BRANCH  15  20
ATOM     20  O7  UNK A          42.827  11.096 -11.860  0.00  0.00    -0.358 OA
ATOM     21  H10 UNK A          42.484  12.002 -11.916  0.00  0.00     0.217 HD
ENDBRANCH  15  20
ENDBRANCH   5  12
BRANCH   6  22
ATOM     22  O2  UNK A          47.751   8.763  -8.786  0.00  0.00    -0.355 OA
ATOM     23  H6  UNK A          47.653   7.942  -8.278  0.00  0.00     0.218 HD
ENDBRANCH   6  22
BRANCH   8  24
ATOM     24  O3  UNK A          50.763  10.226  -4.764  0.00  0.00    -0.360 OA
ATOM     25  H7  UNK A          50.616   9.451  -5.328  0.00  0.00     0.217 HD
ENDBRANCH   8  24
BRANCH  10  26
ATOM     26  O5  UNK A          48.853  14.406  -3.573  0.00  0.00    -0.361 OA
ATOM     27  H8  UNK A          49.756  14.766  -3.528  0.00  0.00     0.217 HD
ENDBRANCH  10  26
TORSDOF 6
ENDMDL
MODEL 8
REMARK VINA RESULT:      -6.1     10.225     11.835
REMARK  6 active torsions:
REMARK  status: ('A' for Active; 'I' for Inactive)
REMARK    1  A    between atoms: O2_2  and  C5_12 
REMARK    2  A    between atoms: O3_3  and  C7_14 
REMARK    3  A    between atoms: O5_5  and  C9_16 
REMARK    4  A    between atoms: O6_6  and  C13_20 
REMARK    5  A    between atoms: O7_7  and  C15_22 
REMARK    6  A    between atoms: C3_10  and  C4_11 
ROOT
ATOM      1  O1  UNK A          46.285  11.362  -7.628  0.00  0.00    -0.306 OA
ATOM      2  O4  UNK A          48.455  12.065 -11.005  0.00  0.00    -0.284 OA
ATOM      3  C1  UNK A          46.391  11.438 -10.051  0.00  0.00     0.084 A 
ATOM      4  C2  UNK A          45.704  11.212  -8.860  0.00  0.00     0.096 A 
ATOM      5  C3  UNK A          47.609  11.769  -7.565  0.00  0.00     0.123 A 
ATOM      6  C5  UNK A          48.384  12.011  -8.638  0.00  0.00     0.152 A 
ATOM      7  C6  UNK A          47.800  11.857  -9.992  0.00  0.00     0.223 A 
ATOM      8  C7  UNK A          45.747  11.268 -11.279  0.00  0.00     0.085 A 
ATOM      9  C8  UNK A          44.368  10.811  -8.890  0.00  0.00     0.075 A 
ATOM     10  C9  UNK A          43.722  10.640 -10.115  0.00  0.00     0.071 A 
ATOM     11  C11 UNK A          44.411  10.868 -11.307  0.00  0.00     0.074 A 
ENDROOT
BRANCH   5  12
ATOM     12  C4  UNK A          48.108  11.891  -6.184  0.00  0.00     0.004 A 
ATOM     13  C10 UNK A          48.633  10.776  -5.529  0.00  0.00     0.053 A 
ATOM     14  C13 UNK A          49.107  10.893  -4.223  0.00  0.00     0.099 A 
ATOM     15  C15 UNK A          49.054  12.124  -3.569  0.00  0.00     0.098 A 
ATOM     16  C14 UNK A          48.528  13.239  -4.223  0.00  0.00     0.040 A 
ATOM     17  C12 UNK A          48.055  13.123  -5.530  0.00  0.00     0.017 A 
BRANCH  14  18
ATOM     18  O6  UNK A          49.617   9.798  -3.594  0.00  0.00    -0.358 OA
ATOM     19  H9  UNK A          50.443  10.034  -3.142  0.00  0.00     0.217 HD
ENDBRANCH  14  18
BRANCH  15  20
ATOM     20  O7  UNK A          49.514  12.251  -2.293  0.00  0.00    -0.358 OA
ATOM     21  H10 UNK A          48.796  12.071  -1.666  0.00  0.00     0.217 HD
ENDBRANCH  15  20
ENDBRANCH   5  12
BRANCH   6  22
ATOM     22  O2  UNK A          49.707  12.383  -8.541  0.00  0.00    -0.355 OA
ATOM     23  H6  UNK A          49.883  12.754  -7.661  0.00  0.00     0.218 HD
ENDBRANCH   6  22
BRANCH   8  24
ATOM     24  O3  UNK A          46.373  11.476 -12.472  0.00  0.00    -0.360 OA
ATOM     25  H7  UNK A          46.245  12.390 -12.768  0.00  0.00     0.217 HD
ENDBRANCH   8  24
BRANCH  10  26
ATOM     26  O5  UNK A          42.419  10.250 -10.146  0.00  0.00    -0.361 OA
ATOM     27  H8  UNK A          41.937  10.699  -9.430  0.00  0.00     0.217 HD
ENDBRANCH  10  26
TORSDOF 6
ENDMDL
MODEL 9
REMARK VINA RESULT:      -6.0      9.970     12.341
REMARK  6 active torsions:
REMARK  status: ('A' for Active; 'I' for Inactive)
REMARK    1  A    between atoms: O2_2  and  C5_12 
REMARK    2  A    between atoms: O3_3  and  C7_14 
REMARK    3  A    between atoms: O5_5  and  C9_16 
REMARK    4  A    between atoms: O6_6  and  C13_20 
REMARK    5  A    between atoms: O7_7  and  C15_22 
REMARK    6  A    between atoms: C3_10  and  C4_11 
ROOT
ATOM      1  O1  UNK A          47.363  11.873  -7.029  0.00  0.00    -0.306 OA
ATOM      2  O4  UNK A          50.654  12.947  -9.180  0.00  0.00    -0.284 OA
ATOM      3  C1  UNK A          49.407  13.173  -7.192  0.00  0.00     0.084 A 
ATOM      4  C2  UNK A          48.263  12.766  -6.508  0.00  0.00     0.096 A 
ATOM      5  C3  UNK A          47.611  11.342  -8.285  0.00  0.00     0.123 A 
ATOM      6  C5  UNK A          48.672  11.657  -9.051  0.00  0.00     0.152 A 
ATOM      7  C6  UNK A          49.668  12.623  -8.530  0.00  0.00     0.223 A 
ATOM      8  C7  UNK A          50.288  14.088  -6.610  0.00  0.00     0.085 A 
ATOM      9  C8  UNK A          47.991  13.276  -5.237  0.00  0.00     0.075 A 
ATOM     10  C9  UNK A          48.869  14.189  -4.653  0.00  0.00     0.071 A 
ATOM     11  C11 UNK A          50.015  14.594  -5.340  0.00  0.00     0.074 A 
ENDROOT
BRANCH   5  12
ATOM     12  C4  UNK A          46.569  10.397  -8.726  0.00  0.00     0.004 A 
ATOM     13  C10 UNK A          45.230  10.787  -8.734  0.00  0.00     0.053 A 
ATOM     14  C13 UNK A          44.245   9.894  -9.152  0.00  0.00     0.099 A 
ATOM     15  C15 UNK A          44.599   8.607  -9.560  0.00  0.00     0.098 A 
ATOM     16  C14 UNK A          45.937   8.216  -9.552  0.00  0.00     0.040 A 
ATOM     17  C12 UNK A          46.923   9.111  -9.135  0.00  0.00     0.017 A 
BRANCH  14  18
ATOM     18  O6  UNK A          42.941  10.285  -9.155  0.00  0.00    -0.358 OA
ATOM     19  H9  UNK A          42.766  10.849  -8.384  0.00  0.00     0.217 HD
ENDBRANCH  14  18
BRANCH  15  20
ATOM     20  O7  UNK A          43.645   7.725  -9.972  0.00  0.00    -0.358 OA
ATOM     21  H10 UNK A          42.866   7.794  -9.399  0.00  0.00     0.217 HD
ENDBRANCH  15  20
ENDBRANCH   5  12
BRANCH   6  22
ATOM     22  O2  UNK A          48.872  11.135 -10.311  0.00  0.00    -0.355 OA
ATOM     23  H6  UNK A          49.663  10.572 -10.313  0.00  0.00     0.218 HD
ENDBRANCH   6  22
BRANCH   8  24
ATOM     24  O3  UNK A          51.420  14.517  -7.236  0.00  0.00    -0.360 OA
ATOM     25  H7  UNK A          51.322  15.438  -7.521  0.00  0.00     0.217 HD
ENDBRANCH   8  24
BRANCH  10  26
ATOM     26  O5  UNK A          48.606  14.687  -3.415  0.00  0.00    -0.361 OA
ATOM     27  H8  UNK A          48.354  13.954  -2.827  0.00  0.00     0.217 HD
ENDBRANCH  10  26
TORSDOF 6
ENDMDL
MODEL 10
REMARK VINA RESULT:      -6.0     10.453     12.755
REMARK  6 active torsions:
REMARK  status: ('A' for Active; 'I' for Inactive)
REMARK    1  A    between atoms: O2_2  and  C5_12 
REMARK    2  A    between atoms: O3_3  and  C7_14 
REMARK    3  A    between atoms: O5_5  and  C9_16 
REMARK    4  A    between atoms: O6_6  and  C13_20 
REMARK    5  A    between atoms: O7_7  and  C15_22 
REMARK    6  A    between atoms: C3_10  and  C4_11 
ROOT
ATOM      1  O1  UNK A          49.342  12.293  -7.436  0.00  0.00    -0.306 OA
ATOM      2  O4  UNK A          50.540  10.998  -3.762  0.00  0.00    -0.284 OA
ATOM      3  C1  UNK A          50.888  12.468  -5.573  0.00  0.00     0.084 A 
ATOM      4  C2  UNK A          50.429  12.865  -6.828  0.00  0.00     0.096 A 
ATOM      5  C3  UNK A          48.663  11.287  -6.768  0.00  0.00     0.123 A 
ATOM      6  C5  UNK A          49.007  10.807  -5.559  0.00  0.00     0.152 A 
ATOM      7  C6  UNK A          50.179  11.391  -4.864  0.00  0.00     0.223 A 
ATOM      8  C7  UNK A          52.003  13.087  -5.003  0.00  0.00     0.085 A 
ATOM      9  C8  UNK A          51.085  13.882  -7.521  0.00  0.00     0.075 A 
ATOM     10  C9  UNK A          52.199  14.502  -6.954  0.00  0.00     0.071 A 
ATOM     11  C11 UNK A          52.657  14.104  -5.697  0.00  0.00     0.074 A 
ENDROOT
BRANCH   5  12
ATOM     12  C4  UNK A          47.517  10.761  -7.531  0.00  0.00     0.004 A 
ATOM     13  C10 UNK A          46.304  11.450  -7.533  0.00  0.00     0.053 A 
ATOM     14  C13 UNK A          45.220  10.953  -8.257  0.00  0.00     0.099 A 
ATOM     15  C15 UNK A          45.349   9.765  -8.977  0.00  0.00     0.098 A 
ATOM     16  C14 UNK A          46.561   9.076  -8.975  0.00  0.00     0.040 A 
ATOM     17  C12 UNK A          47.646   9.574  -8.252  0.00  0.00     0.017 A 
BRANCH  14  18
ATOM     18  O6  UNK A          44.040  11.633  -8.250  0.00  0.00    -0.358 OA
ATOM     19  H9  UNK A          44.209  12.584  -8.355  0.00  0.00     0.217 HD
ENDBRANCH  14  18
BRANCH  15  20
ATOM     20  O7  UNK A          44.298   9.270  -9.689  0.00  0.00    -0.358 OA
ATOM     21  H10 UNK A          44.587   8.506 -10.212  0.00  0.00     0.217 HD
ENDBRANCH  15  20
ENDBRANCH   5  12
BRANCH   6  22
ATOM     22  O2  UNK A          48.329   9.782  -4.935  0.00  0.00    -0.355 OA
ATOM     23  H6  UNK A          48.913   9.342  -4.295  0.00  0.00     0.218 HD
ENDBRANCH   6  22
BRANCH   8  24
ATOM     24  O3  UNK A          52.491  12.737  -3.779  0.00  0.00    -0.360 OA
ATOM     25  H7  UNK A          52.339  13.446  -3.137  0.00  0.00     0.217 HD
ENDBRANCH   8  24
BRANCH  10  26
ATOM     26  O5  UNK A          52.840  15.495  -7.628  0.00  0.00    -0.361 OA
ATOM     27  H8  UNK A          52.179  16.064  -8.058  0.00  0.00     0.217 HD
ENDBRANCH  10  26
TORSDOF 6
ENDMDL
MODEL 11
REMARK VINA RESULT:      -6.0     10.622     12.335
REMARK  6 active torsions:
REMARK  status: ('A' for Active; 'I' for Inactive)
REMARK    1  A    between atoms: O2_2  and  C5_12 
REMARK    2  A    between atoms: O3_3  and  C7_14 
REMARK    3  A    between atoms: O5_5  and  C9_16 
REMARK    4  A    between atoms: O6_6  and  C13_20 
REMARK    5  A    between atoms: O7_7  and  C15_22 
REMARK    6  A    between atoms: C3_10  and  C4_11 
ROOT
ATOM      1  O1  UNK A          49.982  10.072  -4.755  0.00  0.00    -0.306 OA
ATOM      2  O4  UNK A          47.746  13.210  -6.083  0.00  0.00    -0.284 OA
ATOM      3  C1  UNK A          48.416  10.968  -6.378  0.00  0.00     0.084 A 
ATOM      4  C2  UNK A          49.203   9.935  -5.874  0.00  0.00     0.096 A 
ATOM      5  C3  UNK A          49.975  11.288  -4.089  0.00  0.00     0.123 A 
ATOM      6  C5  UNK A          49.267  12.365  -4.475  0.00  0.00     0.152 A 
ATOM      7  C6  UNK A          48.413  12.264  -5.684  0.00  0.00     0.223 A 
ATOM      8  C7  UNK A          47.643  10.770  -7.525  0.00  0.00     0.085 A 
ATOM      9  C8  UNK A          49.224   8.696  -6.517  0.00  0.00     0.075 A 
ATOM     10  C9  UNK A          48.453   8.495  -7.662  0.00  0.00     0.071 A 
ATOM     11  C11 UNK A          47.664   9.531  -8.165  0.00  0.00     0.074 A 
ENDROOT
BRANCH   5  12
ATOM     12  C4  UNK A          50.852  11.300  -2.905  0.00  0.00     0.004 A 
ATOM     13  C10 UNK A          50.316  11.087  -1.635  0.00  0.00     0.053 A 
ATOM     14  C13 UNK A          51.146  11.097  -0.516  0.00  0.00     0.099 A 
ATOM     15  C15 UNK A          52.515  11.324  -0.665  0.00  0.00     0.098 A 
ATOM     16  C14 UNK A          53.052  11.537  -1.934  0.00  0.00     0.040 A 
ATOM     17  C12 UNK A          52.221  11.526  -3.055  0.00  0.00     0.017 A 
BRANCH  14  18
ATOM     18  O6  UNK A          50.611  10.889   0.719  0.00  0.00    -0.358 OA
ATOM     19  H9  UNK A          49.959  10.170   0.678  0.00  0.00     0.217 HD
ENDBRANCH  14  18
BRANCH  15  20
ATOM     20  O7  UNK A          53.337  11.335   0.421  0.00  0.00    -0.358 OA
ATOM     21  H10 UNK A          53.287  10.481   0.879  0.00  0.00     0.217 HD
ENDBRANCH  15  20
ENDBRANCH   5  12
BRANCH   6  22
ATOM     22  O2  UNK A          49.307  13.570  -3.808  0.00  0.00    -0.355 OA
ATOM     23  H6  UNK A          50.088  13.604  -3.233  0.00  0.00     0.218 HD
ENDBRANCH   6  22
BRANCH   8  24
ATOM     24  O3  UNK A          46.856  11.747  -8.058  0.00  0.00    -0.360 OA
ATOM     25  H7  UNK A          46.719  12.461  -7.417  0.00  0.00     0.217 HD
ENDBRANCH   8  24
BRANCH  10  26
ATOM     26  O5  UNK A          48.472   7.288  -8.290  0.00  0.00    -0.361 OA
ATOM     27  H8  UNK A          49.062   6.687  -7.803  0.00  0.00     0.217 HD
ENDBRANCH  10  26
TORSDOF 6
ENDMDL
MODEL 12
REMARK VINA RESULT:      -6.0      9.669     12.093
REMARK  6 active torsions:
REMARK  status: ('A' for Active; 'I' for Inactive)
REMARK    1  A    between atoms: O2_2  and  C5_12 
REMARK    2  A    between atoms: O3_3  and  C7_14 
REMARK    3  A    between atoms: O5_5  and  C9_16 
REMARK    4  A    between atoms: O6_6  and  C13_20 
REMARK    5  A    between atoms: O7_7  and  C15_22 
REMARK    6  A    between atoms: C3_10  and  C4_11 
ROOT
ATOM      1  O1  UNK A          48.655   9.486  -7.034  0.00  0.00    -0.306 OA
ATOM      2  O4  UNK A          45.932   9.538 -10.065  0.00  0.00    -0.284 OA
ATOM      3  C1  UNK A          47.602   8.348  -8.901  0.00  0.00     0.084 A 
ATOM      4  C2  UNK A          48.515   8.393  -7.849  0.00  0.00     0.096 A 
ATOM      5  C3  UNK A          47.844  10.587  -7.257  0.00  0.00     0.123 A 
ATOM      6  C5  UNK A          46.931  10.674  -8.242  0.00  0.00     0.152 A 
ATOM      7  C6  UNK A          46.748   9.518  -9.152  0.00  0.00     0.223 A 
ATOM      8  C7  UNK A          47.505   7.207  -9.701  0.00  0.00     0.085 A 
ATOM      9  C8  UNK A          49.339   7.296  -7.592  0.00  0.00     0.075 A 
ATOM     10  C9  UNK A          49.244   6.155  -8.388  0.00  0.00     0.071 A 
ATOM     11  C11 UNK A          48.328   6.111  -9.441  0.00  0.00     0.074 A 
ENDROOT
BRANCH   5  12
ATOM     12  C4  UNK A          48.096  11.689  -6.312  0.00  0.00     0.004 A 
ATOM     13  C10 UNK A          48.942  12.738  -6.671  0.00  0.00     0.053 A 
ATOM     14  C13 UNK A          49.179  13.781  -5.777  0.00  0.00     0.099 A 
ATOM     15  C15 UNK A          48.571  13.775  -4.521  0.00  0.00     0.098 A 
ATOM     16  C14 UNK A          47.726  12.726  -4.161  0.00  0.00     0.040 A 
ATOM     17  C12 UNK A          47.488  11.683  -5.056  0.00  0.00     0.017 A 
BRANCH  14  18
ATOM     18  O6  UNK A          50.008  14.800  -6.138  0.00  0.00    -0.358 OA
ATOM     19  H9  UNK A          49.780  15.108  -7.030  0.00  0.00     0.217 HD
ENDBRANCH  14  18
BRANCH  15  20
ATOM     20  O7  UNK A          48.794  14.789  -3.639  0.00  0.00    -0.358 OA
ATOM     21  H10 UNK A          47.965  15.262  -3.468  0.00  0.00     0.217 HD
ENDBRANCH  15  20
ENDBRANCH   5  12
BRANCH   6  22
ATOM     22  O2  UNK A          46.162  11.797  -8.459  0.00  0.00    -0.355 OA
ATOM     23  H6  UNK A          45.377  11.565  -8.980  0.00  0.00     0.218 HD
ENDBRANCH   6  22
BRANCH   8  24
ATOM     24  O3  UNK A          46.629   7.111 -10.741  0.00  0.00    -0.360 OA
ATOM     25  H7  UNK A          45.761   7.460 -10.488  0.00  0.00     0.217 HD
ENDBRANCH   8  24
BRANCH  10  26
ATOM     26  O5  UNK A          50.045   5.084  -8.139  0.00  0.00    -0.361 OA
ATOM     27  H8  UNK A          50.774   5.078  -8.783  0.00  0.00     0.217 HD
ENDBRANCH  10  26
TORSDOF 6
ENDMDL
MODEL 13
REMARK VINA RESULT:      -5.9      9.967     12.640
REMARK  6 active torsions:
REMARK  status: ('A' for Active; 'I' for Inactive)
REMARK    1  A    between atoms: O2_2  and  C5_12 
REMARK    2  A    between atoms: O3_3  and  C7_14 
REMARK    3  A    between atoms: O5_5  and  C9_16 
REMARK    4  A    between atoms: O6_6  and  C13_20 
REMARK    5  A    between atoms: O7_7  and  C15_22 
REMARK    6  A    between atoms: C3_10  and  C4_11 
ROOT
ATOM      1  O1  UNK A          48.705  12.407  -8.635  0.00  0.00    -0.306 OA
ATOM      2  O4  UNK A          45.081  11.080  -9.944  0.00  0.00    -0.284 OA
ATOM      3  C1  UNK A          47.199  11.965 -10.486  0.00  0.00     0.084 A 
ATOM      4  C2  UNK A          48.418  12.407  -9.974  0.00  0.00     0.096 A 
ATOM      5  C3  UNK A          47.746  11.936  -7.752  0.00  0.00     0.123 A 
ATOM      6  C5  UNK A          46.529  11.490  -8.115  0.00  0.00     0.152 A 
ATOM      7  C6  UNK A          46.172  11.476  -9.554  0.00  0.00     0.223 A 
ATOM      8  C7  UNK A          46.962  11.989 -11.862  0.00  0.00     0.085 A 
ATOM      9  C8  UNK A          49.407  12.878 -10.838  0.00  0.00     0.075 A 
ATOM     10  C9  UNK A          49.174  12.903 -12.214  0.00  0.00     0.071 A 
ATOM     11  C11 UNK A          47.953  12.459 -12.724  0.00  0.00     0.074 A 
ENDROOT
BRANCH   5  12
ATOM     12  C4  UNK A          48.181  11.991  -6.345  0.00  0.00     0.004 A 
ATOM     13  C10 UNK A          48.159  13.202  -5.654  0.00  0.00     0.053 A 
ATOM     14  C13 UNK A          48.570  13.254  -4.322  0.00  0.00     0.099 A 
ATOM     15  C15 UNK A          49.006  12.093  -3.682  0.00  0.00     0.098 A 
ATOM     16  C14 UNK A          49.029  10.882  -4.373  0.00  0.00     0.040 A 
ATOM     17  C12 UNK A          48.616  10.830  -5.705  0.00  0.00     0.017 A 
BRANCH  14  18
ATOM     18  O6  UNK A          48.545  14.442  -3.658  0.00  0.00    -0.358 OA
ATOM     19  H9  UNK A          47.683  14.559  -3.226  0.00  0.00     0.217 HD
ENDBRANCH  14  18
BRANCH  15  20
ATOM     20  O7  UNK A          49.409  12.130  -2.381  0.00  0.00    -0.358 OA
ATOM     21  H10 UNK A          48.651  11.964  -1.799  0.00  0.00     0.217 HD
ENDBRANCH  15  20
ENDBRANCH   5  12
BRANCH   6  22
ATOM     22  O2  UNK A          45.584  11.058  -7.209  0.00  0.00    -0.355 OA
ATOM     23  H6  UNK A          45.935  10.311  -6.697  0.00  0.00     0.218 HD
ENDBRANCH   6  22
BRANCH   8  24
ATOM     24  O3  UNK A          45.788  11.569 -12.413  0.00  0.00    -0.360 OA
ATOM     25  H7  UNK A          45.300  11.011 -11.789  0.00  0.00     0.217 HD
ENDBRANCH   8  24
BRANCH  10  26
ATOM     26  O5  UNK A          50.137  13.361 -13.058  0.00  0.00    -0.361 OA
ATOM     27  H8  UNK A          50.264  14.314 -12.906  0.00  0.00     0.217 HD
ENDBRANCH  10  26
TORSDOF 6
ENDMDL
MODEL 14
REMARK VINA RESULT:      -5.8     10.444     12.043
REMARK  6 active torsions:
REMARK  status: ('A' for Active; 'I' for Inactive)
REMARK    1  A    between atoms: O2_2  and  C5_12 
REMARK    2  A    between atoms: O3_3  and  C7_14 
REMARK    3  A    between atoms: O5_5  and  C9_16 
REMARK    4  A    between atoms: O6_6  and  C13_20 
REMARK    5  A    between atoms: O7_7  and  C15_22 
REMARK    6  A    between atoms: C3_10  and  C4_11 
ROOT
ATOM      1  O1  UNK A          48.755  10.461  -5.653  0.00  0.00    -0.306 OA
ATOM      2  O4  UNK A          51.178  13.602  -6.586  0.00  0.00    -0.284 OA
ATOM      3  C1  UNK A          50.655  11.860  -5.085  0.00  0.00     0.084 A 
ATOM      4  C2  UNK A          49.791  10.799  -4.822  0.00  0.00     0.096 A 
ATOM      5  C3  UNK A          48.567  11.199  -6.811  0.00  0.00     0.123 A 
ATOM      6  C5  UNK A          49.324  12.250  -7.177  0.00  0.00     0.152 A 
ATOM      7  C6  UNK A          50.454  12.656  -6.306  0.00  0.00     0.223 A 
ATOM      8  C7  UNK A          51.694  12.159  -4.200  0.00  0.00     0.085 A 
ATOM      9  C8  UNK A          49.960  10.030  -3.670  0.00  0.00     0.075 A 
ATOM     10  C9  UNK A          50.996  10.326  -2.784  0.00  0.00     0.071 A 
ATOM     11  C11 UNK A          51.861  11.389  -3.050  0.00  0.00     0.074 A 
ENDROOT
BRANCH   5  12
ATOM     12  C4  UNK A          47.423  10.732  -7.613  0.00  0.00     0.004 A 
ATOM     13  C10 UNK A          46.217  11.433  -7.584  0.00  0.00     0.053 A 
ATOM     14  C13 UNK A          45.134  10.991  -8.343  0.00  0.00     0.099 A 
ATOM     15  C15 UNK A          45.256   9.846  -9.131  0.00  0.00     0.098 A 
ATOM     16  C14 UNK A          46.461   9.145  -9.161  0.00  0.00     0.040 A 
ATOM     17  C12 UNK A          47.545   9.587  -8.401  0.00  0.00     0.017 A 
BRANCH  14  18
ATOM     18  O6  UNK A          43.962  11.682  -8.306  0.00  0.00    -0.358 OA
ATOM     19  H9  UNK A          44.103  12.587  -8.628  0.00  0.00     0.217 HD
ENDBRANCH  14  18
BRANCH  15  20
ATOM     20  O7  UNK A          44.206   9.405  -9.879  0.00  0.00    -0.358 OA
ATOM     21  H10 UNK A          43.397   9.870  -9.613  0.00  0.00     0.217 HD
ENDBRANCH  15  20
ENDBRANCH   5  12
BRANCH   6  22
ATOM     22  O2  UNK A          49.091  12.985  -8.319  0.00  0.00    -0.355 OA
ATOM     23  H6  UNK A          48.266  12.690  -8.738  0.00  0.00     0.218 HD
ENDBRANCH   6  22
BRANCH   8  24
ATOM     24  O3  UNK A          52.566  13.185  -4.411  0.00  0.00    -0.360 OA
ATOM     25  H7  UNK A          52.966  13.116  -5.291  0.00  0.00     0.217 HD
ENDBRANCH   8  24
BRANCH  10  26
ATOM     26  O5  UNK A          51.163   9.578  -1.660  0.00  0.00    -0.361 OA
ATOM     27  H8  UNK A          51.331   8.655  -1.917  0.00  0.00     0.217 HD
ENDBRANCH  10  26
TORSDOF 6
ENDMDL
MODEL 15
REMARK VINA RESULT:      -5.8     10.522     12.983
REMARK  6 active torsions:
REMARK  status: ('A' for Active; 'I' for Inactive)
REMARK    1  A    between atoms: O2_2  and  C5_12 
REMARK    2  A    between atoms: O3_3  and  C7_14 
REMARK    3  A    between atoms: O5_5  and  C9_16 
REMARK    4  A    between atoms: O6_6  and  C13_20 
REMARK    5  A    between atoms: O7_7  and  C15_22 
REMARK    6  A    between atoms: C3_10  and  C4_11 
ROOT
ATOM      1  O1  UNK A          49.281  12.334  -7.787  0.00  0.00    -0.306 OA
ATOM      2  O4  UNK A          50.362  11.861  -3.886  0.00  0.00    -0.284 OA
ATOM      3  C1  UNK A          50.843  12.810  -5.990  0.00  0.00     0.084 A 
ATOM      4  C2  UNK A          50.420  12.932  -7.313  0.00  0.00     0.096 A 
ATOM      5  C3  UNK A          48.511  11.587  -6.909  0.00  0.00     0.123 A 
ATOM      6  C5  UNK A          48.812  11.385  -5.613  0.00  0.00     0.152 A 
ATOM      7  C6  UNK A          50.037  12.008  -5.057  0.00  0.00     0.223 A 
ATOM      8  C7  UNK A          52.014  13.441  -5.564  0.00  0.00     0.085 A 
ATOM      9  C8  UNK A          51.168  13.685  -8.218  0.00  0.00     0.075 A 
ATOM     10  C9  UNK A          52.338  14.317  -7.795  0.00  0.00     0.071 A 
ATOM     11  C11 UNK A          52.759  14.195  -6.470  0.00  0.00     0.074 A 
ENDROOT
BRANCH   5  12
ATOM     12  C4  UNK A          47.318  11.002  -7.545  0.00  0.00     0.004 A 
ATOM     13  C10 UNK A          47.395   9.749  -8.155  0.00  0.00     0.053 A 
ATOM     14  C13 UNK A          46.266   9.195  -8.756  0.00  0.00     0.099 A 
ATOM     15  C15 UNK A          45.058   9.894  -8.749  0.00  0.00     0.098 A 
ATOM     16  C14 UNK A          44.981  11.146  -8.140  0.00  0.00     0.040 A 
ATOM     17  C12 UNK A          46.110  11.700  -7.538  0.00  0.00     0.017 A 
BRANCH  14  18
ATOM     18  O6  UNK A          46.353   7.973  -9.349  0.00  0.00    -0.358 OA
ATOM     19  H9  UNK A          45.551   7.458  -9.161  0.00  0.00     0.217 HD
ENDBRANCH  14  18
BRANCH  15  20
ATOM     20  O7  UNK A          43.947   9.363  -9.332  0.00  0.00    -0.358 OA
ATOM     21  H10 UNK A          43.728   9.861 -10.135  0.00  0.00     0.217 HD
ENDBRANCH  15  20
ENDBRANCH   5  12
BRANCH   6  22
ATOM     22  O2  UNK A          48.042  10.609  -4.774  0.00  0.00    -0.355 OA
ATOM     23  H6  UNK A          48.559   9.850  -4.458  0.00  0.00     0.218 HD
ENDBRANCH   6  22
BRANCH   8  24
ATOM     24  O3  UNK A          52.471  13.354  -4.283  0.00  0.00    -0.360 OA
ATOM     25  H7  UNK A          53.028  12.568  -4.173  0.00  0.00     0.217 HD
ENDBRANCH   8  24
BRANCH  10  26
ATOM     26  O5  UNK A          53.069  15.053  -8.676  0.00  0.00    -0.361 OA
ATOM     27  H8  UNK A          53.687  15.617  -8.180  0.00  0.00     0.217 HD
ENDBRANCH  10  26
TORSDOF 6
ENDMDL
MODEL 16
REMARK VINA RESULT:      -5.8     10.499     11.920
REMARK  6 active torsions:
REMARK  status: ('A' for Active; 'I' for Inactive)
REMARK    1  A    between atoms: O2_2  and  C5_12 
REMARK    2  A    between atoms: O3_3  and  C7_14 
REMARK    3  A    between atoms: O5_5  and  C9_16 
REMARK    4  A    between atoms: O6_6  and  C13_20 
REMARK    5  A    between atoms: O7_7  and  C15_22 
REMARK    6  A    between atoms: C3_10  and  C4_11 
ROOT
ATOM      1  O1  UNK A          47.746  11.137  -6.057  0.00  0.00    -0.306 OA
ATOM      2  O4  UNK A          51.325  11.010  -8.002  0.00  0.00    -0.284 OA
ATOM      3  C1  UNK A          50.168  11.253  -5.962  0.00  0.00     0.084 A 
ATOM      4  C2  UNK A          48.914  11.288  -5.356  0.00  0.00     0.096 A 
ATOM      5  C3  UNK A          47.818  10.928  -7.426  0.00  0.00     0.123 A 
ATOM      6  C5  UNK A          48.963  10.881  -8.131  0.00  0.00     0.152 A 
ATOM      7  C6  UNK A          50.251  11.044  -7.415  0.00  0.00     0.223 A 
ATOM      8  C7  UNK A          51.326  11.414  -5.196  0.00  0.00     0.085 A 
ATOM      9  C8  UNK A          48.809  11.487  -3.979  0.00  0.00     0.075 A 
ATOM     10  C9  UNK A          49.962  11.648  -3.211  0.00  0.00     0.071 A 
ATOM     11  C11 UNK A          51.218  11.612  -3.819  0.00  0.00     0.074 A 
ENDROOT
BRANCH   5  12
ATOM     12  C4  UNK A          46.494  10.782  -8.055  0.00  0.00     0.004 A 
ATOM     13  C10 UNK A          46.048   9.524  -8.462  0.00  0.00     0.053 A 
ATOM     14  C13 UNK A          44.795   9.386  -9.057  0.00  0.00     0.099 A 
ATOM     15  C15 UNK A          43.986  10.507  -9.247  0.00  0.00     0.098 A 
ATOM     16  C14 UNK A          44.431  11.765  -8.841  0.00  0.00     0.040 A 
ATOM     17  C12 UNK A          45.685  11.903  -8.245  0.00  0.00     0.017 A 
BRANCH  14  18
ATOM     18  O6  UNK A          44.371   8.153  -9.450  0.00  0.00    -0.358 OA
ATOM     19  H9  UNK A          44.258   8.137 -10.415  0.00  0.00     0.217 HD
ENDBRANCH  14  18
BRANCH  15  20
ATOM     20  O7  UNK A          42.759  10.384  -9.826  0.00  0.00    -0.358 OA
ATOM     21  H10 UNK A          42.110  10.102  -9.162  0.00  0.00     0.217 HD
ENDBRANCH  15  20
ENDBRANCH   5  12
BRANCH   6  22
ATOM     22  O2  UNK A          48.999  10.704  -9.497  0.00  0.00    -0.355 OA
ATOM     23  H6  UNK A          49.286  11.525  -9.929  0.00  0.00     0.218 HD
ENDBRANCH   6  22
BRANCH   8  24
ATOM     24  O3  UNK A          52.575  11.388  -5.738  0.00  0.00    -0.360 OA
ATOM     25  H7  UNK A          53.156  12.018  -5.286  0.00  0.00     0.217 HD
ENDBRANCH   8  24
BRANCH  10  26
ATOM     26  O5  UNK A          49.863  11.842  -1.868  0.00  0.00    -0.361 OA
ATOM     27  H8  UNK A          50.296  12.681  -1.636  0.00  0.00     0.217 HD
ENDBRANCH  10  26
TORSDOF 6
ENDMDL
MODEL 17
REMARK VINA RESULT:      -5.7     10.278     12.823
REMARK  6 active torsions:
REMARK  status: ('A' for Active; 'I' for Inactive)
REMARK    1  A    between atoms: O2_2  and  C5_12 
REMARK    2  A    between atoms: O3_3  and  C7_14 
REMARK    3  A    between atoms: O5_5  and  C9_16 
REMARK    4  A    between atoms: O6_6  and  C13_20 
REMARK    5  A    between atoms: O7_7  and  C15_22 
REMARK    6  A    between atoms: C3_10  and  C4_11 
ROOT
ATOM      1  O1  UNK A          50.107   9.450  -6.708  0.00  0.00    -0.306 OA
ATOM      2  O4  UNK A          47.164   8.051  -9.155  0.00  0.00    -0.284 OA
ATOM      3  C1  UNK A          49.338   7.773  -8.285  0.00  0.00     0.084 A 
ATOM      4  C2  UNK A          50.304   8.304  -7.432  0.00  0.00     0.096 A 
ATOM      5  C3  UNK A          48.888  10.102  -6.819  0.00  0.00     0.123 A 
ATOM      6  C5  UNK A          47.878   9.700  -7.612  0.00  0.00     0.152 A 
ATOM      7  C6  UNK A          48.048   8.467  -8.418  0.00  0.00     0.223 A 
ATOM      8  C7  UNK A          49.596   6.601  -8.999  0.00  0.00     0.085 A 
ATOM      9  C8  UNK A          51.536   7.665  -7.290  0.00  0.00     0.075 A 
ATOM     10  C9  UNK A          51.797   6.494  -8.002  0.00  0.00     0.071 A 
ATOM     11  C11 UNK A          50.828   5.964  -8.856  0.00  0.00     0.074 A 
ENDROOT
BRANCH   5  12
ATOM     12  C4  UNK A          48.808  11.317  -5.990  0.00  0.00     0.004 A 
ATOM     13  C10 UNK A          49.397  12.504  -6.429  0.00  0.00     0.053 A 
ATOM     14  C13 UNK A          49.319  13.653  -5.644  0.00  0.00     0.099 A 
ATOM     15  C15 UNK A          48.655  13.617  -4.418  0.00  0.00     0.098 A 
ATOM     16  C14 UNK A          48.066  12.432  -3.978  0.00  0.00     0.040 A 
ATOM     17  C12 UNK A          48.143  11.282  -4.763  0.00  0.00     0.017 A 
BRANCH  14  18
ATOM     18  O6  UNK A          49.898  14.805  -6.083  0.00  0.00    -0.358 OA
ATOM     19  H9  UNK A          50.751  14.935  -5.636  0.00  0.00     0.217 HD
ENDBRANCH  14  18
BRANCH  15  20
ATOM     20  O7  UNK A          48.571  14.735  -3.643  0.00  0.00    -0.358 OA
ATOM     21  H10 UNK A          48.199  15.466  -4.161  0.00  0.00     0.217 HD
ENDBRANCH  15  20
ENDBRANCH   5  12
BRANCH   6  22
ATOM     22  O2  UNK A          46.690  10.390  -7.725  0.00  0.00    -0.355 OA
ATOM     23  H6  UNK A          46.844  11.338  -7.580  0.00  0.00     0.218 HD
ENDBRANCH   6  22
BRANCH   8  24
ATOM     24  O3  UNK A          48.686   6.041  -9.846  0.00  0.00    -0.360 OA
ATOM     25  H7  UNK A          47.786   6.169  -9.510  0.00  0.00     0.217 HD
ENDBRANCH   8  24
BRANCH  10  26
ATOM     26  O5  UNK A          52.998   5.869  -7.866  0.00  0.00    -0.361 OA
ATOM     27  H8  UNK A          53.697   6.448  -8.215  0.00  0.00     0.217 HD
ENDBRANCH  10  26
TORSDOF 6
ENDMDL
