MODEL 1
REMARK VINA RESULT:      -7.5      0.000      0.000
REMARK  6 active torsions:
REMARK  status: ('A' for Active; 'I' for Inactive)
REMARK    1  A    between atoms: O2_2  and  C5_12 
REMARK    2  A    between atoms: O3_3  and  C7_14 
REMARK    3  A    between atoms: O5_5  and  C9_16 
REMARK    4  A    between atoms: O6_6  and  C13_20 
REMARK    5  A    between atoms: O7_7  and  C15_22 
REMARK    6  A    between atoms: C3_10  and  C4_11 
ROOT
ATOM      1  O1  UNK A          39.621  15.123   0.031  0.00  0.00    -0.306 OA
ATOM      2  O4  UNK A          41.756  15.730  -3.386  0.00  0.00    -0.284 OA
ATOM      3  C1  UNK A          40.199  16.572  -1.828  0.00  0.00     0.084 A 
ATOM      4  C2  UNK A          39.496  16.302  -0.655  0.00  0.00     0.096 A 
ATOM      5  C3  UNK A          40.493  14.162  -0.456  0.00  0.00     0.123 A 
ATOM      6  C5  UNK A          41.223  14.294  -1.579  0.00  0.00     0.152 A 
ATOM      7  C6  UNK A          41.117  15.552  -2.358  0.00  0.00     0.223 A 
ATOM      8  C7  UNK A          40.031  17.793  -2.485  0.00  0.00     0.085 A 
ATOM      9  C8  UNK A          38.618  17.253  -0.133  0.00  0.00     0.075 A 
ATOM     10  C9  UNK A          38.448  18.474  -0.787  0.00  0.00     0.071 A 
ATOM     11  C11 UNK A          39.153  18.742  -1.961  0.00  0.00     0.074 A 
ENDROOT
BRANCH   5  12
ATOM     12  C4  UNK A          40.532  12.946   0.374  0.00  0.00     0.004 A 
ATOM     13  C10 UNK A          40.431  13.043   1.762  0.00  0.00     0.053 A 
ATOM     14  C13 UNK A          40.466  11.892   2.547  0.00  0.00     0.099 A 
ATOM     15  C15 UNK A          40.605  10.641   1.945  0.00  0.00     0.098 A 
ATOM     16  C14 UNK A          40.706  10.542   0.557  0.00  0.00     0.040 A 
ATOM     17  C12 UNK A          40.670  11.695  -0.228  0.00  0.00     0.017 A 
BRANCH  14  18
ATOM     18  O6  UNK A          40.367  12.000   3.901  0.00  0.00    -0.358 OA
ATOM     19  H9  UNK A          39.435  11.958   4.167  0.00  0.00     0.217 HD
ENDBRANCH  14  18
BRANCH  15  20
ATOM     20  O7  UNK A          40.639   9.508   2.702  0.00  0.00    -0.358 OA
ATOM     21  H10 UNK A          39.978   8.877   2.377  0.00  0.00     0.217 HD
ENDBRANCH  15  20
ENDBRANCH   5  12
BRANCH   6  22
ATOM     22  O2  UNK A          42.057  13.306  -2.055  0.00  0.00    -0.355 OA
ATOM     23  H6  UNK A          42.981  13.529  -1.854  0.00  0.00     0.218 HD
ENDBRANCH   6  22
BRANCH   8  24
ATOM     24  O3  UNK A          40.694  18.106  -3.634  0.00  0.00    -0.360 OA
ATOM     25  H7  UNK A          41.201  17.344  -3.952  0.00  0.00     0.217 HD
ENDBRANCH   8  24
BRANCH  10  26
ATOM     26  O5  UNK A          37.593  19.402  -0.281  0.00  0.00    -0.361 OA
ATOM     27  H8  UNK A          36.678  19.111  -0.440  0.00  0.00     0.217 HD
ENDBRANCH  10  26
TORSDOF 6
ENDMDL
MODEL 2
REMARK VINA RESULT:      -7.2      1.211      6.453
REMARK  6 active torsions:
REMARK  status: ('A' for Active; 'I' for Inactive)
REMARK    1  A    between atoms: O2_2  and  C5_12 
REMARK    2  A    between atoms: O3_3  and  C7_14 
REMARK    3  A    between atoms: O5_5  and  C9_16 
REMARK    4  A    between atoms: O6_6  and  C13_20 
REMARK    5  A    between atoms: O7_7  and  C15_22 
REMARK    6  A    between atoms: C3_10  and  C4_11 
ROOT
ATOM      1  O1  UNK A          39.758  14.338   0.190  0.00  0.00    -0.306 OA
ATOM      2  O4  UNK A          42.329  12.556  -2.422  0.00  0.00    -0.284 OA
ATOM      3  C1  UNK A          40.970  12.354  -0.505  0.00  0.00     0.084 A 
ATOM      4  C2  UNK A          40.098  13.021   0.353  0.00  0.00     0.096 A 
ATOM      5  C3  UNK A          40.294  15.032  -0.883  0.00  0.00     0.123 A 
ATOM      6  C5  UNK A          41.152  14.509  -1.778  0.00  0.00     0.152 A 
ATOM      7  C6  UNK A          41.553  13.088  -1.638  0.00  0.00     0.223 A 
ATOM      8  C7  UNK A          41.282  11.009  -0.288  0.00  0.00     0.085 A 
ATOM      9  C8  UNK A          39.534  12.346   1.437  0.00  0.00     0.075 A 
ATOM     10  C9  UNK A          39.843  11.004   1.657  0.00  0.00     0.071 A 
ATOM     11  C11 UNK A          40.716  10.337   0.795  0.00  0.00     0.074 A 
ENDROOT
BRANCH   5  12
ATOM     12  C4  UNK A          39.847  16.435  -0.943  0.00  0.00     0.004 A 
ATOM     13  C10 UNK A          39.064  16.963   0.084  0.00  0.00     0.053 A 
ATOM     14  C13 UNK A          38.643  18.291   0.028  0.00  0.00     0.099 A 
ATOM     15  C15 UNK A          39.003  19.092  -1.056  0.00  0.00     0.098 A 
ATOM     16  C14 UNK A          39.786  18.565  -2.083  0.00  0.00     0.040 A 
ATOM     17  C12 UNK A          40.208  17.236  -2.026  0.00  0.00     0.017 A 
BRANCH  14  18
ATOM     18  O6  UNK A          37.877  18.795   1.036  0.00  0.00    -0.358 OA
ATOM     19  H9  UNK A          36.945  18.812   0.763  0.00  0.00     0.217 HD
ENDBRANCH  14  18
BRANCH  15  20
ATOM     20  O7  UNK A          38.598  20.391  -1.121  0.00  0.00    -0.358 OA
ATOM     21  H10 UNK A          39.308  20.937  -1.494  0.00  0.00     0.217 HD
ENDBRANCH  15  20
ENDBRANCH   5  12
BRANCH   6  22
ATOM     22  O2  UNK A          41.694  15.235  -2.816  0.00  0.00    -0.355 OA
ATOM     23  H6  UNK A          42.495  15.694  -2.515  0.00  0.00     0.218 HD
ENDBRANCH   6  22
BRANCH   8  24
ATOM     24  O3  UNK A          42.128  10.311  -1.097  0.00  0.00    -0.360 OA
ATOM     25  H7  UNK A          42.653   9.683  -0.579  0.00  0.00     0.217 HD
ENDBRANCH   8  24
BRANCH  10  26
ATOM     26  O5  UNK A          39.293  10.345   2.712  0.00  0.00    -0.361 OA
ATOM     27  H8  UNK A          39.530   9.403   2.655  0.00  0.00     0.217 HD
ENDBRANCH  10  26
TORSDOF 6
ENDMDL
MODEL 3
REMARK VINA RESULT:      -7.0      2.080      3.085
REMARK  6 active torsions:
REMARK  status: ('A' for Active; 'I' for Inactive)
REMARK    1  A    between atoms: O2_2  and  C5_12 
REMARK    2  A    between atoms: O3_3  and  C7_14 
REMARK    3  A    between atoms: O5_5  and  C9_16 
REMARK    4  A    between atoms: O6_6  and  C13_20 
REMARK    5  A    between atoms: O7_7  and  C15_22 
REMARK    6  A    between atoms: C3_10  and  C4_11 
ROOT
ATOM      1  O1  UNK A          39.295  17.442  -0.149  0.00  0.00    -0.306 OA
ATOM      2  O4  UNK A          40.612  18.968  -3.692  0.00  0.00    -0.284 OA
ATOM      3  C1  UNK A          39.794  19.383  -1.519  0.00  0.00     0.084 A 
ATOM      4  C2  UNK A          39.353  18.799  -0.333  0.00  0.00     0.096 A 
ATOM      5  C3  UNK A          39.706  16.616  -1.184  0.00  0.00     0.123 A 
ATOM      6  C5  UNK A          40.145  17.052  -2.379  0.00  0.00     0.152 A 
ATOM      7  C6  UNK A          40.220  18.512  -2.625  0.00  0.00     0.223 A 
ATOM      8  C7  UNK A          39.830  20.773  -1.650  0.00  0.00     0.085 A 
ATOM      9  C8  UNK A          38.941  19.604   0.730  0.00  0.00     0.075 A 
ATOM     10  C9  UNK A          38.976  20.993   0.603  0.00  0.00     0.071 A 
ATOM     11  C11 UNK A          39.420  21.576  -0.585  0.00  0.00     0.074 A 
ENDROOT
BRANCH   5  12
ATOM     12  C4  UNK A          39.594  15.184  -0.856  0.00  0.00     0.004 A 
ATOM     13  C10 UNK A          40.642  14.532  -0.205  0.00  0.00     0.053 A 
ATOM     14  C13 UNK A          40.534  13.177   0.106  0.00  0.00     0.099 A 
ATOM     15  C15 UNK A          39.379  12.473  -0.235  0.00  0.00     0.098 A 
ATOM     16  C14 UNK A          38.331  13.124  -0.885  0.00  0.00     0.040 A 
ATOM     17  C12 UNK A          38.438  14.480  -1.196  0.00  0.00     0.017 A 
BRANCH  14  18
ATOM     18  O6  UNK A          41.564  12.551   0.740  0.00  0.00    -0.358 OA
ATOM     19  H9  UNK A          41.918  13.125   1.438  0.00  0.00     0.217 HD
ENDBRANCH  14  18
BRANCH  15  20
ATOM     20  O7  UNK A          39.262  11.149   0.066  0.00  0.00    -0.358 OA
ATOM     21  H10 UNK A          39.109  11.041   1.018  0.00  0.00     0.217 HD
ENDBRANCH  15  20
ENDBRANCH   5  12
BRANCH   6  22
ATOM     22  O2  UNK A          40.516  16.203  -3.399  0.00  0.00    -0.355 OA
ATOM     23  H6  UNK A          41.117  15.521  -3.059  0.00  0.00     0.218 HD
ENDBRANCH   6  22
BRANCH   8  24
ATOM     24  O3  UNK A          40.253  21.394  -2.787  0.00  0.00    -0.360 OA
ATOM     25  H7  UNK A          40.465  20.742  -3.471  0.00  0.00     0.217 HD
ENDBRANCH   8  24
BRANCH  10  26
ATOM     26  O5  UNK A          38.576  21.780   1.638  0.00  0.00    -0.361 OA
ATOM     27  H8  UNK A          38.884  21.385   2.473  0.00  0.00     0.217 HD
ENDBRANCH  10  26
TORSDOF 6
ENDMDL
MODEL 4
REMARK VINA RESULT:      -6.8      1.479      2.348
REMARK  6 active torsions:
REMARK  status: ('A' for Active; 'I' for Inactive)
REMARK    1  A    between atoms: O2_2  and  C5_12 
REMARK    2  A    between atoms: O3_3  and  C7_14 
REMARK    3  A    between atoms: O5_5  and  C9_16 
REMARK    4  A    between atoms: O6_6  and  C13_20 
REMARK    5  A    between atoms: O7_7  and  C15_22 
REMARK    6  A    between atoms: C3_10  and  C4_11 
ROOT
ATOM      1  O1  UNK A          39.521  15.986  -0.052  0.00  0.00    -0.306 OA
ATOM      2  O4  UNK A          40.881  17.726  -3.477  0.00  0.00    -0.284 OA
ATOM      3  C1  UNK A          39.716  17.967  -1.440  0.00  0.00     0.084 A 
ATOM      4  C2  UNK A          39.278  17.313  -0.290  0.00  0.00     0.096 A 
ATOM      5  C3  UNK A          40.246  15.267  -0.989  0.00  0.00     0.123 A 
ATOM      6  C5  UNK A          40.718  15.775  -2.142  0.00  0.00     0.152 A 
ATOM      7  C6  UNK A          40.474  17.206  -2.445  0.00  0.00     0.223 A 
ATOM      8  C7  UNK A          39.437  19.322  -1.631  0.00  0.00     0.085 A 
ATOM      9  C8  UNK A          38.554  18.013   0.677  0.00  0.00     0.075 A 
ATOM     10  C9  UNK A          38.274  19.366   0.490  0.00  0.00     0.071 A 
ATOM     11  C11 UNK A          38.714  20.019  -0.662  0.00  0.00     0.074 A 
ENDROOT
BRANCH   5  12
ATOM     12  C4  UNK A          40.436  13.856  -0.610  0.00  0.00     0.004 A 
ATOM     13  C10 UNK A          41.070  12.976  -1.488  0.00  0.00     0.053 A 
ATOM     14  C13 UNK A          41.251  11.641  -1.128  0.00  0.00     0.099 A 
ATOM     15  C15 UNK A          40.796  11.184   0.109  0.00  0.00     0.098 A 
ATOM     16  C14 UNK A          40.162  12.063   0.987  0.00  0.00     0.040 A 
ATOM     17  C12 UNK A          39.982  13.399   0.628  0.00  0.00     0.017 A 
BRANCH  14  18
ATOM     18  O6  UNK A          41.870  10.791  -1.994  0.00  0.00    -0.358 OA
ATOM     19  H9  UNK A          41.710   9.872  -1.722  0.00  0.00     0.217 HD
ENDBRANCH  14  18
BRANCH  15  20
ATOM     20  O7  UNK A          40.968   9.882   0.473  0.00  0.00    -0.358 OA
ATOM     21  H10 UNK A          41.096   9.336  -0.319  0.00  0.00     0.217 HD
ENDBRANCH  15  20
ENDBRANCH   5  12
BRANCH   6  22
ATOM     22  O2  UNK A          41.408  15.025  -3.069  0.00  0.00    -0.355 OA
ATOM     23  H6  UNK A          40.953  15.059  -3.926  0.00  0.00     0.218 HD
ENDBRANCH   6  22
BRANCH   8  24
ATOM     24  O3  UNK A          39.843  20.008  -2.737  0.00  0.00    -0.360 OA
ATOM     25  H7  UNK A          40.215  19.402  -3.395  0.00  0.00     0.217 HD
ENDBRANCH   8  24
BRANCH  10  26
ATOM     26  O5  UNK A          37.569  20.050   1.431  0.00  0.00    -0.361 OA
ATOM     27  H8  UNK A          37.406  19.465   2.191  0.00  0.00     0.217 HD
ENDBRANCH  10  26
TORSDOF 6
ENDMDL
MODEL 5
REMARK VINA RESULT:      -6.7      2.090      3.026
REMARK  6 active torsions:
REMARK  status: ('A' for Active; 'I' for Inactive)
REMARK    1  A    between atoms: O2_2  and  C5_12 
REMARK    2  A    between atoms: O3_3  and  C7_14 
REMARK    3  A    between atoms: O5_5  and  C9_16 
REMARK    4  A    between atoms: O6_6  and  C13_20 
REMARK    5  A    between atoms: O7_7  and  C15_22 
REMARK    6  A    between atoms: C3_10  and  C4_11 
ROOT
ATOM      1  O1  UNK A          39.597  17.064  -0.223  0.00  0.00    -0.306 OA
ATOM      2  O4  UNK A          40.613  18.989  -3.668  0.00  0.00    -0.284 OA
ATOM      3  C1  UNK A          39.760  19.137  -1.474  0.00  0.00     0.084 A 
ATOM      4  C2  UNK A          39.432  18.420  -0.325  0.00  0.00     0.096 A 
ATOM      5  C3  UNK A          40.127  16.378  -1.305  0.00  0.00     0.123 A 
ATOM      6  C5  UNK A          40.477  16.949  -2.472  0.00  0.00     0.152 A 
ATOM      7  C6  UNK A          40.311  18.414  -2.631  0.00  0.00     0.223 A 
ATOM      8  C7  UNK A          39.568  20.520  -1.521  0.00  0.00     0.085 A 
ATOM      9  C8  UNK A          38.905  19.083   0.784  0.00  0.00     0.075 A 
ATOM     10  C9  UNK A          38.712  20.464   0.741  0.00  0.00     0.071 A 
ATOM     11  C11 UNK A          39.043  21.180  -0.411  0.00  0.00     0.074 A 
ENDROOT
BRANCH   5  12
ATOM     12  C4  UNK A          40.253  14.930  -1.063  0.00  0.00     0.004 A 
ATOM     13  C10 UNK A          39.110  14.137  -0.960  0.00  0.00     0.053 A 
ATOM     14  C13 UNK A          39.229  12.766  -0.733  0.00  0.00     0.099 A 
ATOM     15  C15 UNK A          40.493  12.188  -0.606  0.00  0.00     0.098 A 
ATOM     16  C14 UNK A          41.636  12.980  -0.709  0.00  0.00     0.040 A 
ATOM     17  C12 UNK A          41.516  14.351  -0.937  0.00  0.00     0.017 A 
BRANCH  14  18
ATOM     18  O6  UNK A          38.106  12.003  -0.633  0.00  0.00    -0.358 OA
ATOM     19  H9  UNK A          38.352  11.070  -0.523  0.00  0.00     0.217 HD
ENDBRANCH  14  18
BRANCH  15  20
ATOM     20  O7  UNK A          40.622  10.850  -0.385  0.00  0.00    -0.358 OA
ATOM     21  H10 UNK A          40.084  10.359  -1.025  0.00  0.00     0.217 HD
ENDBRANCH  15  20
ENDBRANCH   5  12
BRANCH   6  22
ATOM     22  O2  UNK A          40.971  16.234  -3.542  0.00  0.00    -0.355 OA
ATOM     23  H6  UNK A          41.897  15.992  -3.378  0.00  0.00     0.218 HD
ENDBRANCH   6  22
BRANCH   8  24
ATOM     24  O3  UNK A          39.873  21.267  -2.620  0.00  0.00    -0.360 OA
ATOM     25  H7  UNK A          40.504  21.966  -2.391  0.00  0.00     0.217 HD
ENDBRANCH   8  24
BRANCH  10  26
ATOM     26  O5  UNK A          38.200  21.112   1.821  0.00  0.00    -0.361 OA
ATOM     27  H8  UNK A          37.249  20.919   1.885  0.00  0.00     0.217 HD
ENDBRANCH  10  26
TORSDOF 6
ENDMDL
MODEL 6
REMARK VINA RESULT:      -6.3      2.711      7.348
REMARK  6 active torsions:
REMARK  status: ('A' for Active; 'I' for Inactive)
REMARK    1  A    between atoms: O2_2  and  C5_12 
REMARK    2  A    between atoms: O3_3  and  C7_14 
REMARK    3  A    between atoms: O5_5  and  C9_16 
REMARK    4  A    between atoms: O6_6  and  C13_20 
REMARK    5  A    between atoms: O7_7  and  C15_22 
REMARK    6  A    between atoms: C3_10  and  C4_11 
ROOT
ATOM      1  O1  UNK A          40.552  17.041  -1.349  0.00  0.00    -0.306 OA
ATOM      2  O4  UNK A          36.995  15.163  -0.691  0.00  0.00    -0.284 OA
ATOM      3  C1  UNK A          39.291  14.973  -1.195  0.00  0.00     0.084 A 
ATOM      4  C2  UNK A          40.476  15.674  -1.410  0.00  0.00     0.096 A 
ATOM      5  C3  UNK A          39.403  17.755  -1.046  0.00  0.00     0.123 A 
ATOM      6  C5  UNK A          38.197  17.200  -0.824  0.00  0.00     0.152 A 
ATOM      7  C6  UNK A          38.066  15.724  -0.885  0.00  0.00     0.223 A 
ATOM      8  C7  UNK A          39.274  13.578  -1.272  0.00  0.00     0.085 A 
ATOM      9  C8  UNK A          41.651  14.983  -1.708  0.00  0.00     0.075 A 
ATOM     10  C9  UNK A          41.638  13.590  -1.785  0.00  0.00     0.071 A 
ATOM     11  C11 UNK A          40.450  12.890  -1.568  0.00  0.00     0.074 A 
ENDROOT
BRANCH   5  12
ATOM     12  C4  UNK A          39.623  19.211  -1.011  0.00  0.00     0.004 A 
ATOM     13  C10 UNK A          39.231  19.951   0.105  0.00  0.00     0.053 A 
ATOM     14  C13 UNK A          39.441  21.329   0.138  0.00  0.00     0.099 A 
ATOM     15  C15 UNK A          40.040  21.969  -0.947  0.00  0.00     0.098 A 
ATOM     16  C14 UNK A          40.432  21.230  -2.063  0.00  0.00     0.040 A 
ATOM     17  C12 UNK A          40.223  19.851  -2.096  0.00  0.00     0.017 A 
BRANCH  14  18
ATOM     18  O6  UNK A          39.053  22.040   1.232  0.00  0.00    -0.358 OA
ATOM     19  H9  UNK A          38.278  21.620   1.640  0.00  0.00     0.217 HD
ENDBRANCH  14  18
BRANCH  15  20
ATOM     20  O7  UNK A          40.252  23.315  -0.926  0.00  0.00    -0.358 OA
ATOM     21  H10 UNK A          40.496  23.622  -1.813  0.00  0.00     0.217 HD
ENDBRANCH  15  20
ENDBRANCH   5  12
BRANCH   6  22
ATOM     22  O2  UNK A          37.066  17.941  -0.557  0.00  0.00    -0.355 OA
ATOM     23  H6  UNK A          37.249  18.580   0.150  0.00  0.00     0.218 HD
ENDBRANCH   6  22
BRANCH   8  24
ATOM     24  O3  UNK A          38.143  12.845  -1.069  0.00  0.00    -0.360 OA
ATOM     25  H7  UNK A          38.045  12.623  -0.131  0.00  0.00     0.217 HD
ENDBRANCH   8  24
BRANCH  10  26
ATOM     26  O5  UNK A          42.783  12.915  -2.074  0.00  0.00    -0.361 OA
ATOM     27  H8  UNK A          43.542  13.506  -1.936  0.00  0.00     0.217 HD
ENDBRANCH  10  26
TORSDOF 6
ENDMDL
MODEL 7
REMARK VINA RESULT:      -6.3     10.140     11.897
REMARK  6 active torsions:
REMARK  status: ('A' for Active; 'I' for Inactive)
REMARK    1  A    between atoms: O2_2  and  C5_12 
REMARK    2  A    between atoms: O3_3  and  C7_14 
REMARK    3  A    between atoms: O5_5  and  C9_16 
REMARK    4  A    between atoms: O6_6  and  C13_20 
REMARK    5  A    between atoms: O7_7  and  C15_22 
REMARK    6  A    between atoms: C3_10  and  C4_11 
ROOT
ATOM      1  O1  UNK A          46.204  11.235  -7.908  0.00  0.00    -0.306 OA
ATOM      2  O4  UNK A          47.861   7.668  -8.976  0.00  0.00    -0.284 OA
ATOM      3  C1  UNK A          45.972   9.080  -9.000  0.00  0.00     0.084 A 
ATOM      4  C2  UNK A          45.464  10.316  -8.605  0.00  0.00     0.096 A 
ATOM      5  C3  UNK A          47.519  10.926  -7.595  0.00  0.00     0.123 A 
ATOM      6  C5  UNK A          48.126   9.767  -7.910  0.00  0.00     0.152 A 
ATOM      7  C6  UNK A          47.362   8.741  -8.660  0.00  0.00     0.223 A 
ATOM      8  C7  UNK A          45.170   8.182  -9.708  0.00  0.00     0.085 A 
ATOM      9  C8  UNK A          44.148  10.660  -8.914  0.00  0.00     0.075 A 
ATOM     10  C9  UNK A          43.344   9.766  -9.621  0.00  0.00     0.071 A 
ATOM     11  C11 UNK A          43.855   8.529 -10.017  0.00  0.00     0.074 A 
ENDROOT
BRANCH   5  12
ATOM     12  C4  UNK A          48.199  11.998  -6.847  0.00  0.00     0.004 A 
ATOM     13  C10 UNK A          48.090  12.059  -5.458  0.00  0.00     0.053 A 
ATOM     14  C13 UNK A          48.735  13.072  -4.750  0.00  0.00     0.099 A 
ATOM     15  C15 UNK A          49.489  14.028  -5.433  0.00  0.00     0.098 A 
ATOM     16  C14 UNK A          49.598  13.968  -6.822  0.00  0.00     0.040 A 
ATOM     17  C12 UNK A          48.953  12.954  -7.530  0.00  0.00     0.017 A 
BRANCH  14  18
ATOM     18  O6  UNK A          48.621  13.122  -3.394  0.00  0.00    -0.358 OA
ATOM     19  H9  UNK A          47.782  13.545  -3.151  0.00  0.00     0.217 HD
ENDBRANCH  14  18
BRANCH  15  20
ATOM     20  O7  UNK A          50.125  15.023  -4.753  0.00  0.00    -0.358 OA
ATOM     21  H10 UNK A          49.763  15.088  -3.855  0.00  0.00     0.217 HD
ENDBRANCH  15  20
ENDBRANCH   5  12
BRANCH   6  22
ATOM     22  O2  UNK A          49.425   9.478  -7.555  0.00  0.00    -0.355 OA
ATOM     23  H6  UNK A          50.039   9.873  -8.196  0.00  0.00     0.218 HD
ENDBRANCH   6  22
BRANCH   8  24
ATOM     24  O3  UNK A          45.618   6.962 -10.118  0.00  0.00    -0.360 OA
ATOM     25  H7  UNK A          45.133   6.667 -10.903  0.00  0.00     0.217 HD
ENDBRANCH   8  24
BRANCH  10  26
ATOM     26  O5  UNK A          42.060  10.100  -9.924  0.00  0.00    -0.361 OA
ATOM     27  H8  UNK A          41.832  10.928  -9.467  0.00  0.00     0.217 HD
ENDBRANCH  10  26
TORSDOF 6
ENDMDL
MODEL 8
REMARK VINA RESULT:      -6.2      1.321      6.624
REMARK  6 active torsions:
REMARK  status: ('A' for Active; 'I' for Inactive)
REMARK    1  A    between atoms: O2_2  and  C5_12 
REMARK    2  A    between atoms: O3_3  and  C7_14 
REMARK    3  A    between atoms: O5_5  and  C9_16 
REMARK    4  A    between atoms: O6_6  and  C13_20 
REMARK    5  A    between atoms: O7_7  and  C15_22 
REMARK    6  A    between atoms: C3_10  and  C4_11 
ROOT
ATOM      1  O1  UNK A          40.230  13.954   0.907  0.00  0.00    -0.306 OA
ATOM      2  O4  UNK A          41.613  10.463  -0.678  0.00  0.00    -0.284 OA
ATOM      3  C1  UNK A          40.797  11.614   1.212  0.00  0.00     0.084 A 
ATOM      4  C2  UNK A          40.333  12.837   1.693  0.00  0.00     0.096 A 
ATOM      5  C3  UNK A          40.590  13.859  -0.428  0.00  0.00     0.123 A 
ATOM      6  C5  UNK A          41.059  12.742  -1.014  0.00  0.00     0.152 A 
ATOM      7  C6  UNK A          41.193  11.510  -0.201  0.00  0.00     0.223 A 
ATOM      8  C7  UNK A          40.882  10.508   2.062  0.00  0.00     0.085 A 
ATOM      9  C8  UNK A          39.953  12.961   3.031  0.00  0.00     0.075 A 
ATOM     10  C9  UNK A          40.036  11.859   3.882  0.00  0.00     0.071 A 
ATOM     11  C11 UNK A          40.500  10.635   3.397  0.00  0.00     0.074 A 
ENDROOT
BRANCH   5  12
ATOM     12  C4  UNK A          40.431  15.129  -1.159  0.00  0.00     0.004 A 
ATOM     13  C10 UNK A          39.866  16.235  -0.523  0.00  0.00     0.053 A 
ATOM     14  C13 UNK A          39.717  17.436  -1.214  0.00  0.00     0.099 A 
ATOM     15  C15 UNK A          40.131  17.532  -2.543  0.00  0.00     0.098 A 
ATOM     16  C14 UNK A          40.696  16.427  -3.179  0.00  0.00     0.040 A 
ATOM     17  C12 UNK A          40.846  15.225  -2.487  0.00  0.00     0.017 A 
BRANCH  14  18
ATOM     18  O6  UNK A          39.162  18.509  -0.584  0.00  0.00    -0.358 OA
ATOM     19  H9  UNK A          38.287  18.695  -0.961  0.00  0.00     0.217 HD
ENDBRANCH  14  18
BRANCH  15  20
ATOM     20  O7  UNK A          39.992  18.702  -3.229  0.00  0.00    -0.358 OA
ATOM     21  H10 UNK A          39.050  18.913  -3.328  0.00  0.00     0.217 HD
ENDBRANCH  15  20
ENDBRANCH   5  12
BRANCH   6  22
ATOM     22  O2  UNK A          41.440  12.689  -2.337  0.00  0.00    -0.355 OA
ATOM     23  H6  UNK A          42.405  12.776  -2.407  0.00  0.00     0.218 HD
ENDBRANCH   6  22
BRANCH   8  24
ATOM     24  O3  UNK A          41.328   9.291   1.641  0.00  0.00    -0.360 OA
ATOM     25  H7  UNK A          41.943   8.913   2.287  0.00  0.00     0.217 HD
ENDBRANCH   8  24
BRANCH  10  26
ATOM     26  O5  UNK A          39.666  11.978   5.185  0.00  0.00    -0.361 OA
ATOM     27  H8  UNK A          38.867  11.445   5.337  0.00  0.00     0.217 HD
ENDBRANCH  10  26
TORSDOF 6
ENDMDL
MODEL 9
REMARK VINA RESULT:      -5.9      9.852     11.883
REMARK  6 active torsions:
REMARK  status: ('A' for Active; 'I' for Inactive)
REMARK    1  A    between atoms: O2_2  and  C5_12 
REMARK    2  A    between atoms: O3_3  and  C7_14 
REMARK    3  A    between atoms: O5_5  and  C9_16 
REMARK    4  A    between atoms: O6_6  and  C13_20 
REMARK    5  A    between atoms: O7_7  and  C15_22 
REMARK    6  A    between atoms: C3_10  and  C4_11 
ROOT
ATOM      1  O1  UNK A          45.878  11.148  -7.916  0.00  0.00    -0.306 OA
ATOM      2  O4  UNK A          47.719   7.736  -9.175  0.00  0.00    -0.284 OA
ATOM      3  C1  UNK A          45.804   9.112  -9.236  0.00  0.00     0.084 A 
ATOM      4  C2  UNK A          45.230  10.293  -8.768  0.00  0.00     0.096 A 
ATOM      5  C3  UNK A          47.166  10.830  -7.513  0.00  0.00     0.123 A 
ATOM      6  C5  UNK A          47.829   9.719  -7.884  0.00  0.00     0.152 A 
ATOM      7  C6  UNK A          47.165   8.762  -8.801  0.00  0.00     0.223 A 
ATOM      8  C7  UNK A          45.094   8.278 -10.103  0.00  0.00     0.085 A 
ATOM      9  C8  UNK A          43.939  10.645  -9.165  0.00  0.00     0.075 A 
ATOM     10  C9  UNK A          43.227   9.815 -10.031  0.00  0.00     0.071 A 
ATOM     11  C11 UNK A          43.805   8.633 -10.498  0.00  0.00     0.074 A 
ENDROOT
BRANCH   5  12
ATOM     12  C4  UNK A          47.746  11.831  -6.600  0.00  0.00     0.004 A 
ATOM     13  C10 UNK A          48.672  12.758  -7.078  0.00  0.00     0.053 A 
ATOM     14  C13 UNK A          49.220  13.706  -6.214  0.00  0.00     0.099 A 
ATOM     15  C15 UNK A          48.843  13.725  -4.871  0.00  0.00     0.098 A 
ATOM     16  C14 UNK A          47.917  12.799  -4.393  0.00  0.00     0.040 A 
ATOM     17  C12 UNK A          47.368  11.851  -5.257  0.00  0.00     0.017 A 
BRANCH  14  18
ATOM     18  O6  UNK A          50.125  14.605  -6.692  0.00  0.00    -0.358 OA
ATOM     19  H9  UNK A          49.999  15.462  -6.253  0.00  0.00     0.217 HD
ENDBRANCH  14  18
BRANCH  15  20
ATOM     20  O7  UNK A          49.371  14.648  -4.018  0.00  0.00    -0.358 OA
ATOM     21  H10 UNK A          48.890  15.486  -4.103  0.00  0.00     0.217 HD
ENDBRANCH  15  20
ENDBRANCH   5  12
BRANCH   6  22
ATOM     22  O2  UNK A          49.097   9.416  -7.438  0.00  0.00    -0.355 OA
ATOM     23  H6  UNK A          49.046   8.800  -6.690  0.00  0.00     0.218 HD
ENDBRANCH   6  22
BRANCH   8  24
ATOM     24  O3  UNK A          45.610   7.114 -10.589  0.00  0.00    -0.360 OA
ATOM     25  H7  UNK A          46.054   6.618  -9.884  0.00  0.00     0.217 HD
ENDBRANCH   8  24
BRANCH  10  26
ATOM     26  O5  UNK A          41.969  10.156 -10.418  0.00  0.00    -0.361 OA
ATOM     27  H8  UNK A          41.384   9.386 -10.311  0.00  0.00     0.217 HD
ENDBRANCH  10  26
TORSDOF 6
ENDMDL
MODEL 10
REMARK VINA RESULT:      -5.8     10.182     13.052
REMARK  6 active torsions:
REMARK  status: ('A' for Active; 'I' for Inactive)
REMARK    1  A    between atoms: O2_2  and  C5_12 
REMARK    2  A    between atoms: O3_3  and  C7_14 
REMARK    3  A    between atoms: O5_5  and  C9_16 
REMARK    4  A    between atoms: O6_6  and  C13_20 
REMARK    5  A    between atoms: O7_7  and  C15_22 
REMARK    6  A    between atoms: C3_10  and  C4_11 
ROOT
ATOM      1  O1  UNK A          48.663   9.488  -7.032  0.00  0.00    -0.306 OA
ATOM      2  O4  UNK A          45.928   9.528 -10.053  0.00  0.00    -0.284 OA
ATOM      3  C1  UNK A          47.608   8.345  -8.895  0.00  0.00     0.084 A 
ATOM      4  C2  UNK A          48.524   8.395  -7.846  0.00  0.00     0.096 A 
ATOM      5  C3  UNK A          47.847  10.587  -7.254  0.00  0.00     0.123 A 
ATOM      6  C5  UNK A          46.930  10.669  -8.235  0.00  0.00     0.152 A 
ATOM      7  C6  UNK A          46.748   9.512  -9.144  0.00  0.00     0.223 A 
ATOM      8  C7  UNK A          47.511   7.203  -9.693  0.00  0.00     0.085 A 
ATOM      9  C8  UNK A          49.353   7.301  -7.592  0.00  0.00     0.075 A 
ATOM     10  C9  UNK A          49.260   6.159  -8.387  0.00  0.00     0.071 A 
ATOM     11  C11 UNK A          48.340   6.111  -9.436  0.00  0.00     0.074 A 
ENDROOT
BRANCH   5  12
ATOM     12  C4  UNK A          48.098  11.690  -6.310  0.00  0.00     0.004 A 
ATOM     13  C10 UNK A          48.945  12.739  -6.670  0.00  0.00     0.053 A 
ATOM     14  C13 UNK A          49.181  13.783  -5.778  0.00  0.00     0.099 A 
ATOM     15  C15 UNK A          48.572  13.779  -4.522  0.00  0.00     0.098 A 
ATOM     16  C14 UNK A          47.726  12.730  -4.161  0.00  0.00     0.040 A 
ATOM     17  C12 UNK A          47.489  11.686  -5.055  0.00  0.00     0.017 A 
BRANCH  14  18
ATOM     18  O6  UNK A          50.010  14.801  -6.140  0.00  0.00    -0.358 OA
ATOM     19  H9  UNK A          49.518  15.456  -6.660  0.00  0.00     0.217 HD
ENDBRANCH  14  18
BRANCH  15  20
ATOM     20  O7  UNK A          48.795  14.794  -3.642  0.00  0.00    -0.358 OA
ATOM     21  H10 UNK A          48.421  14.565  -2.776  0.00  0.00     0.217 HD
ENDBRANCH  15  20
ENDBRANCH   5  12
BRANCH   6  22
ATOM     22  O2  UNK A          46.156  11.789  -8.449  0.00  0.00    -0.355 OA
ATOM     23  H6  UNK A          46.700  12.589  -8.360  0.00  0.00     0.218 HD
ENDBRANCH   6  22
BRANCH   8  24
ATOM     24  O3  UNK A          46.632   7.103 -10.730  0.00  0.00    -0.360 OA
ATOM     25  H7  UNK A          45.965   7.804 -10.679  0.00  0.00     0.217 HD
ENDBRANCH   8  24
BRANCH  10  26
ATOM     26  O5  UNK A          50.066   5.092  -8.140  0.00  0.00    -0.361 OA
ATOM     27  H8  UNK A          50.573   4.886  -8.944  0.00  0.00     0.217 HD
ENDBRANCH  10  26
TORSDOF 6
ENDMDL
MODEL 11
REMARK VINA RESULT:      -5.6     10.111     12.756
REMARK  6 active torsions:
REMARK  status: ('A' for Active; 'I' for Inactive)
REMARK    1  A    between atoms: O2_2  and  C5_12 
REMARK    2  A    between atoms: O3_3  and  C7_14 
REMARK    3  A    between atoms: O5_5  and  C9_16 
REMARK    4  A    between atoms: O6_6  and  C13_20 
REMARK    5  A    between atoms: O7_7  and  C15_22 
REMARK    6  A    between atoms: C3_10  and  C4_11 
ROOT
ATOM      1  O1  UNK A          47.264  10.428  -7.916  0.00  0.00    -0.306 OA
ATOM      2  O4  UNK A          49.495   7.043  -7.499  0.00  0.00    -0.284 OA
ATOM      3  C1  UNK A          47.801   8.186  -8.676  0.00  0.00     0.084 A 
ATOM      4  C2  UNK A          47.070   9.370  -8.765  0.00  0.00     0.096 A 
ATOM      5  C3  UNK A          48.237  10.320  -6.935  0.00  0.00     0.123 A 
ATOM      6  C5  UNK A          49.004   9.231  -6.737  0.00  0.00     0.152 A 
ATOM      7  C6  UNK A          48.826   8.060  -7.629  0.00  0.00     0.223 A 
ATOM      8  C7  UNK A          47.559   7.139  -9.569  0.00  0.00     0.085 A 
ATOM      9  C8  UNK A          46.090   9.512  -9.748  0.00  0.00     0.075 A 
ATOM     10  C9  UNK A          45.846   8.469 -10.642  0.00  0.00     0.071 A 
ATOM     11  C11 UNK A          46.579   7.285 -10.551  0.00  0.00     0.074 A 
ENDROOT
BRANCH   5  12
ATOM     12  C4  UNK A          48.342  11.525  -6.094  0.00  0.00     0.004 A 
ATOM     13  C10 UNK A          49.193  12.566  -6.467  0.00  0.00     0.053 A 
ATOM     14  C13 UNK A          49.291  13.707  -5.671  0.00  0.00     0.099 A 
ATOM     15  C15 UNK A          48.539  13.806  -4.500  0.00  0.00     0.098 A 
ATOM     16  C14 UNK A          47.689  12.766  -4.126  0.00  0.00     0.040 A 
ATOM     17  C12 UNK A          47.590  11.625  -4.922  0.00  0.00     0.017 A 
BRANCH  14  18
ATOM     18  O6  UNK A          50.125  14.716  -6.045  0.00  0.00    -0.358 OA
ATOM     19  H9  UNK A          49.728  15.217  -6.776  0.00  0.00     0.217 HD
ENDBRANCH  14  18
BRANCH  15  20
ATOM     20  O7  UNK A          48.626  14.917  -3.715  0.00  0.00    -0.358 OA
ATOM     21  H10 UNK A          48.507  15.712  -4.258  0.00  0.00     0.217 HD
ENDBRANCH  15  20
ENDBRANCH   5  12
BRANCH   6  22
ATOM     22  O2  UNK A          49.941   9.144  -5.731  0.00  0.00    -0.355 OA
ATOM     23  H6  UNK A          50.831   9.275  -6.097  0.00  0.00     0.218 HD
ENDBRANCH   6  22
BRANCH   8  24
ATOM     24  O3  UNK A          48.244   5.962  -9.525  0.00  0.00    -0.360 OA
ATOM     25  H7  UNK A          48.733   5.884  -8.691  0.00  0.00     0.217 HD
ENDBRANCH   8  24
BRANCH  10  26
ATOM     26  O5  UNK A          44.892   8.606 -11.601  0.00  0.00    -0.361 OA
ATOM     27  H8  UNK A          44.304   9.343 -11.360  0.00  0.00     0.217 HD
ENDBRANCH  10  26
TORSDOF 6
ENDMDL
MODEL 12
REMARK VINA RESULT:      -5.5     10.012     11.396
REMARK  6 active torsions:
REMARK  status: ('A' for Active; 'I' for Inactive)
REMARK    1  A    between atoms: O2_2  and  C5_12 
REMARK    2  A    between atoms: O3_3  and  C7_14 
REMARK    3  A    between atoms: O5_5  and  C9_16 
REMARK    4  A    between atoms: O6_6  and  C13_20 
REMARK    5  A    between atoms: O7_7  and  C15_22 
REMARK    6  A    between atoms: C3_10  and  C4_11 
ROOT
ATOM      1  O1  UNK A          46.796  11.476  -7.319  0.00  0.00    -0.306 OA
ATOM      2  O4  UNK A          48.481   8.775  -9.863  0.00  0.00    -0.284 OA
ATOM      3  C1  UNK A          46.758  10.333  -9.460  0.00  0.00     0.084 A 
ATOM      4  C2  UNK A          46.230  11.243  -8.545  0.00  0.00     0.096 A 
ATOM      5  C3  UNK A          47.951  10.788  -6.981  0.00  0.00     0.123 A 
ATOM      6  C5  UNK A          48.555   9.879  -7.769  0.00  0.00     0.152 A 
ATOM      7  C6  UNK A          47.975   9.590  -9.102  0.00  0.00     0.223 A 
ATOM      8  C7  UNK A          46.136  10.135 -10.695  0.00  0.00     0.085 A 
ATOM      9  C8  UNK A          45.074  11.958  -8.860  0.00  0.00     0.075 A 
ATOM     10  C9  UNK A          44.451  11.763 -10.093  0.00  0.00     0.071 A 
ATOM     11  C11 UNK A          44.982  10.853 -11.008  0.00  0.00     0.074 A 
ENDROOT
BRANCH   5  12
ATOM     12  C4  UNK A          48.454  11.132  -5.640  0.00  0.00     0.004 A 
ATOM     13  C10 UNK A          48.392  12.450  -5.187  0.00  0.00     0.053 A 
ATOM     14  C13 UNK A          48.867  12.775  -3.917  0.00  0.00     0.099 A 
ATOM     15  C15 UNK A          49.407  11.782  -3.099  0.00  0.00     0.098 A 
ATOM     16  C14 UNK A          49.469  10.464  -3.551  0.00  0.00     0.040 A 
ATOM     17  C12 UNK A          48.993  10.139  -4.821  0.00  0.00     0.017 A 
BRANCH  14  18
ATOM     18  O6  UNK A          48.802  14.066  -3.487  0.00  0.00    -0.358 OA
ATOM     19  H9  UNK A          48.008  14.492  -3.846  0.00  0.00     0.217 HD
ENDBRANCH  14  18
BRANCH  15  20
ATOM     20  O7  UNK A          49.873  12.087  -1.856  0.00  0.00    -0.358 OA
ATOM     21  H10 UNK A          49.959  11.276  -1.330  0.00  0.00     0.217 HD
ENDBRANCH  15  20
ENDBRANCH   5  12
BRANCH   6  22
ATOM     22  O2  UNK A          49.685   9.187  -7.389  0.00  0.00    -0.355 OA
ATOM     23  H6  UNK A          50.133   9.657  -6.668  0.00  0.00     0.218 HD
ENDBRANCH   6  22
BRANCH   8  24
ATOM     24  O3  UNK A          46.612   9.259 -11.625  0.00  0.00    -0.360 OA
ATOM     25  H7  UNK A          45.887   8.912 -12.167  0.00  0.00     0.217 HD
ENDBRANCH   8  24
BRANCH  10  26
ATOM     26  O5  UNK A          43.325  12.461 -10.403  0.00  0.00    -0.361 OA
ATOM     27  H8  UNK A          43.468  13.400 -10.195  0.00  0.00     0.217 HD
ENDBRANCH  10  26
TORSDOF 6
ENDMDL
MODEL 13
REMARK VINA RESULT:      -5.5      9.887     12.621
REMARK  6 active torsions:
REMARK  status: ('A' for Active; 'I' for Inactive)
REMARK    1  A    between atoms: O2_2  and  C5_12 
REMARK    2  A    between atoms: O3_3  and  C7_14 
REMARK    3  A    between atoms: O5_5  and  C9_16 
REMARK    4  A    between atoms: O6_6  and  C13_20 
REMARK    5  A    between atoms: O7_7  and  C15_22 
REMARK    6  A    between atoms: C3_10  and  C4_11 
ROOT
ATOM      1  O1  UNK A          47.807   9.690  -8.087  0.00  0.00    -0.306 OA
ATOM      2  O4  UNK A          44.140  10.209  -9.788  0.00  0.00    -0.284 OA
ATOM      3  C1  UNK A          46.030   8.829  -9.498  0.00  0.00     0.084 A 
ATOM      4  C2  UNK A          47.278   8.713  -8.889  0.00  0.00     0.096 A 
ATOM      5  C3  UNK A          47.062  10.837  -7.862  0.00  0.00     0.123 A 
ATOM      6  C5  UNK A          45.850  11.076  -8.396  0.00  0.00     0.152 A 
ATOM      7  C6  UNK A          45.240  10.049  -9.275  0.00  0.00     0.223 A 
ATOM      8  C7  UNK A          45.542   7.800 -10.308  0.00  0.00     0.085 A 
ATOM      9  C8  UNK A          48.047   7.565  -9.088  0.00  0.00     0.075 A 
ATOM     10  C9  UNK A          47.563   6.536  -9.895  0.00  0.00     0.071 A 
ATOM     11  C11 UNK A          46.313   6.654 -10.504  0.00  0.00     0.074 A 
ENDROOT
BRANCH   5  12
ATOM     12  C4  UNK A          47.744  11.803  -6.984  0.00  0.00     0.004 A 
ATOM     13  C10 UNK A          47.528  11.769  -5.606  0.00  0.00     0.053 A 
ATOM     14  C13 UNK A          48.175  12.683  -4.775  0.00  0.00     0.099 A 
ATOM     15  C15 UNK A          49.038  13.633  -5.322  0.00  0.00     0.098 A 
ATOM     16  C14 UNK A          49.254  13.668  -6.699  0.00  0.00     0.040 A 
ATOM     17  C12 UNK A          48.608  12.753  -7.531  0.00  0.00     0.017 A 
BRANCH  14  18
ATOM     18  O6  UNK A          47.955  12.641  -3.432  0.00  0.00    -0.358 OA
ATOM     19  H9  UNK A          48.800  12.703  -2.958  0.00  0.00     0.217 HD
ENDBRANCH  14  18
BRANCH  15  20
ATOM     20  O7  UNK A          49.677  14.531  -4.520  0.00  0.00    -0.358 OA
ATOM     21  H10 UNK A          50.633  14.490  -4.680  0.00  0.00     0.217 HD
ENDBRANCH  15  20
ENDBRANCH   5  12
BRANCH   6  22
ATOM     22  O2  UNK A          45.149  12.242  -8.179  0.00  0.00    -0.355 OA
ATOM     23  H6  UNK A          45.161  12.789  -8.982  0.00  0.00     0.218 HD
ENDBRANCH   6  22
BRANCH   8  24
ATOM     24  O3  UNK A          44.330   7.864 -10.926  0.00  0.00    -0.360 OA
ATOM     25  H7  UNK A          44.272   8.656 -11.482  0.00  0.00     0.217 HD
ENDBRANCH   8  24
BRANCH  10  26
ATOM     26  O5  UNK A          48.311   5.417 -10.090  0.00  0.00    -0.361 OA
ATOM     27  H8  UNK A          48.519   5.021  -9.226  0.00  0.00     0.217 HD
ENDBRANCH  10  26
TORSDOF 6
ENDMDL
MODEL 14
REMARK VINA RESULT:      -5.1      9.959     11.041
REMARK  6 active torsions:
REMARK  status: ('A' for Active; 'I' for Inactive)
REMARK    1  A    between atoms: O2_2  and  C5_12 
REMARK    2  A    between atoms: O3_3  and  C7_14 
REMARK    3  A    between atoms: O5_5  and  C9_16 
REMARK    4  A    between atoms: O6_6  and  C13_20 
REMARK    5  A    between atoms: O7_7  and  C15_22 
REMARK    6  A    between atoms: C3_10  and  C4_11 
ROOT
ATOM      1  O1  UNK A          46.679  11.310  -6.803  0.00  0.00    -0.306 OA
ATOM      2  O4  UNK A          48.791  12.344 -10.132  0.00  0.00    -0.284 OA
ATOM      3  C1  UNK A          46.759  11.574  -9.214  0.00  0.00     0.084 A 
ATOM      4  C2  UNK A          46.092  11.234  -8.039  0.00  0.00     0.096 A 
ATOM      5  C3  UNK A          47.989  11.756  -6.718  0.00  0.00     0.123 A 
ATOM      6  C5  UNK A          48.745  12.107  -7.775  0.00  0.00     0.152 A 
ATOM      7  C6  UNK A          48.153  12.036  -9.133  0.00  0.00     0.223 A 
ATOM      8  C7  UNK A          46.110  11.476 -10.447  0.00  0.00     0.085 A 
ATOM      9  C8  UNK A          44.770  10.791  -8.090  0.00  0.00     0.075 A 
ATOM     10  C9  UNK A          44.118  10.691  -9.319  0.00  0.00     0.071 A 
ATOM     11  C11 UNK A          44.788  11.033 -10.495  0.00  0.00     0.074 A 
ENDROOT
BRANCH   5  12
ATOM     12  C4  UNK A          48.497  11.790  -5.336  0.00  0.00     0.004 A 
ATOM     13  C10 UNK A          49.071  10.649  -4.774  0.00  0.00     0.053 A 
ATOM     14  C13 UNK A          49.553  10.682  -3.466  0.00  0.00     0.099 A 
ATOM     15  C15 UNK A          49.460  11.856  -2.718  0.00  0.00     0.098 A 
ATOM     16  C14 UNK A          48.887  12.997  -3.279  0.00  0.00     0.040 A 
ATOM     17  C12 UNK A          48.405  12.964  -4.588  0.00  0.00     0.017 A 
BRANCH  14  18
ATOM     18  O6  UNK A          50.110   9.562  -2.928  0.00  0.00    -0.358 OA
ATOM     19  H9  UNK A          51.009   9.758  -2.618  0.00  0.00     0.217 HD
ENDBRANCH  14  18
BRANCH  15  20
ATOM     20  O7  UNK A          49.929  11.901  -1.439  0.00  0.00    -0.358 OA
ATOM     21  H10 UNK A          49.250  11.572  -0.830  0.00  0.00     0.217 HD
ENDBRANCH  15  20
ENDBRANCH   5  12
BRANCH   6  22
ATOM     22  O2  UNK A          50.056  12.516  -7.660  0.00  0.00    -0.355 OA
ATOM     23  H6  UNK A          50.296  13.073  -8.419  0.00  0.00     0.218 HD
ENDBRANCH   6  22
BRANCH   8  24
ATOM     24  O3  UNK A          46.716  11.796 -11.625  0.00  0.00    -0.360 OA
ATOM     25  H7  UNK A          46.297  11.326 -12.362  0.00  0.00     0.217 HD
ENDBRANCH   8  24
BRANCH  10  26
ATOM     26  O5  UNK A          42.829  10.260  -9.372  0.00  0.00    -0.361 OA
ATOM     27  H8  UNK A          42.236  11.026  -9.290  0.00  0.00     0.217 HD
ENDBRANCH  10  26
TORSDOF 6
ENDMDL
MODEL 15
REMARK VINA RESULT:      -5.1     10.801     12.336
REMARK  6 active torsions:
REMARK  status: ('A' for Active; 'I' for Inactive)
REMARK    1  A    between atoms: O2_2  and  C5_12 
REMARK    2  A    between atoms: O3_3  and  C7_14 
REMARK    3  A    between atoms: O5_5  and  C9_16 
REMARK    4  A    between atoms: O6_6  and  C13_20 
REMARK    5  A    between atoms: O7_7  and  C15_22 
REMARK    6  A    between atoms: C3_10  and  C4_11 
ROOT
ATOM      1  O1  UNK A          45.442  10.836  -8.665  0.00  0.00    -0.306 OA
ATOM      2  O4  UNK A          47.859   7.569  -8.973  0.00  0.00    -0.284 OA
ATOM      3  C1  UNK A          47.547   9.751  -8.134  0.00  0.00     0.084 A 
ATOM      4  C2  UNK A          46.675  10.836  -8.067  0.00  0.00     0.096 A 
ATOM      5  C3  UNK A          45.041   9.703  -9.355  0.00  0.00     0.123 A 
ATOM      6  C5  UNK A          45.790   8.594  -9.502  0.00  0.00     0.152 A 
ATOM      7  C6  UNK A          47.133   8.550  -8.876  0.00  0.00     0.223 A 
ATOM      8  C7  UNK A          48.793   9.808  -7.506  0.00  0.00     0.085 A 
ATOM      9  C8  UNK A          47.046  11.987  -7.371  0.00  0.00     0.075 A 
ATOM     10  C9  UNK A          48.290  12.048  -6.742  0.00  0.00     0.071 A 
ATOM     11  C11 UNK A          49.161  10.960  -6.810  0.00  0.00     0.074 A 
ENDROOT
BRANCH   5  12
ATOM     12  C4  UNK A          43.698   9.835  -9.948  0.00  0.00     0.004 A 
ATOM     13  C10 UNK A          42.634   9.090  -9.440  0.00  0.00     0.053 A 
ATOM     14  C13 UNK A          41.363   9.216 -10.000  0.00  0.00     0.099 A 
ATOM     15  C15 UNK A          41.157  10.087 -11.070  0.00  0.00     0.098 A 
ATOM     16  C14 UNK A          42.220  10.832 -11.579  0.00  0.00     0.040 A 
ATOM     17  C12 UNK A          43.491  10.706 -11.018  0.00  0.00     0.017 A 
BRANCH  14  18
ATOM     18  O6  UNK A          40.332   8.483  -9.496  0.00  0.00    -0.358 OA
ATOM     19  H9  UNK A          39.982   7.894 -10.184  0.00  0.00     0.217 HD
ENDBRANCH  14  18
BRANCH  15  20
ATOM     20  O7  UNK A          39.919  10.220 -11.625  0.00  0.00    -0.358 OA
ATOM     21  H10 UNK A          39.670   9.395 -12.070  0.00  0.00     0.217 HD
ENDBRANCH  15  20
ENDBRANCH   5  12
BRANCH   6  22
ATOM     22  O2  UNK A          45.374   7.495 -10.222  0.00  0.00    -0.355 OA
ATOM     23  H6  UNK A          45.988   6.756 -10.080  0.00  0.00     0.218 HD
ENDBRANCH   6  22
BRANCH   8  24
ATOM     24  O3  UNK A          49.682   8.776  -7.541  0.00  0.00    -0.360 OA
ATOM     25  H7  UNK A          49.503   8.148  -6.824  0.00  0.00     0.217 HD
ENDBRANCH   8  24
BRANCH  10  26
ATOM     26  O5  UNK A          48.653  13.169  -6.063  0.00  0.00    -0.361 OA
ATOM     27  H8  UNK A          47.933  13.421  -5.459  0.00  0.00     0.217 HD
ENDBRANCH  10  26
TORSDOF 6
ENDMDL
MODEL 16
REMARK VINA RESULT:      -5.1      9.777     11.727
REMARK  6 active torsions:
REMARK  status: ('A' for Active; 'I' for Inactive)
REMARK    1  A    between atoms: O2_2  and  C5_12 
REMARK    2  A    between atoms: O3_3  and  C7_14 
REMARK    3  A    between atoms: O5_5  and  C9_16 
REMARK    4  A    between atoms: O6_6  and  C13_20 
REMARK    5  A    between atoms: O7_7  and  C15_22 
REMARK    6  A    between atoms: C3_10  and  C4_11 
ROOT
ATOM      1  O1  UNK A          46.198  10.800  -7.655  0.00  0.00    -0.306 OA
ATOM      2  O4  UNK A          49.017  12.490 -10.064  0.00  0.00    -0.284 OA
ATOM      3  C1  UNK A          48.165  12.202  -7.884  0.00  0.00     0.084 A 
ATOM      4  C2  UNK A          47.173  11.596  -7.115  0.00  0.00     0.096 A 
ATOM      5  C3  UNK A          46.207  10.576  -9.023  0.00  0.00     0.123 A 
ATOM      6  C5  UNK A          47.103  11.107  -9.876  0.00  0.00     0.152 A 
ATOM      7  C6  UNK A          48.174  11.980  -9.338  0.00  0.00     0.223 A 
ATOM      8  C7  UNK A          49.134  13.006  -7.278  0.00  0.00     0.085 A 
ATOM      9  C8  UNK A          47.143  11.794  -5.734  0.00  0.00     0.075 A 
ATOM     10  C9  UNK A          48.108  12.595  -5.126  0.00  0.00     0.071 A 
ATOM     11  C11 UNK A          49.102  13.200  -5.897  0.00  0.00     0.074 A 
ENDROOT
BRANCH   5  12
ATOM     12  C4  UNK A          45.108   9.704  -9.472  0.00  0.00     0.004 A 
ATOM     13  C10 UNK A          43.784  10.125  -9.342  0.00  0.00     0.053 A 
ATOM     14  C13 UNK A          42.744   9.300  -9.768  0.00  0.00     0.099 A 
ATOM     15  C15 UNK A          43.027   8.051 -10.322  0.00  0.00     0.098 A 
ATOM     16  C14 UNK A          44.350   7.629 -10.452  0.00  0.00     0.040 A 
ATOM     17  C12 UNK A          45.391   8.455 -10.027  0.00  0.00     0.017 A 
BRANCH  14  18
ATOM     18  O6  UNK A          41.456   9.722  -9.636  0.00  0.00    -0.358 OA
ATOM     19  H9  UNK A          41.400  10.672  -9.828  0.00  0.00     0.217 HD
ENDBRANCH  14  18
BRANCH  15  20
ATOM     20  O7  UNK A          42.019   7.237 -10.743  0.00  0.00    -0.358 OA
ATOM     21  H10 UNK A          42.389   6.405 -11.079  0.00  0.00     0.217 HD
ENDBRANCH  15  20
ENDBRANCH   5  12
BRANCH   6  22
ATOM     22  O2  UNK A          47.065  10.892 -11.237  0.00  0.00    -0.355 OA
ATOM     23  H6  UNK A          47.887  10.463 -11.526  0.00  0.00     0.218 HD
ENDBRANCH   6  22
BRANCH   8  24
ATOM     24  O3  UNK A          50.125  13.620  -7.983  0.00  0.00    -0.360 OA
ATOM     25  H7  UNK A          50.216  14.545  -7.708  0.00  0.00     0.217 HD
ENDBRANCH   8  24
BRANCH  10  26
ATOM     26  O5  UNK A          48.081  12.789  -3.779  0.00  0.00    -0.361 OA
ATOM     27  H8  UNK A          48.932  12.507  -3.402  0.00  0.00     0.217 HD
ENDBRANCH  10  26
TORSDOF 6
ENDMDL
MODEL 17
REMARK VINA RESULT:      -5.1     10.149     12.862
REMARK  6 active torsions:
REMARK  status: ('A' for Active; 'I' for Inactive)
REMARK    1  A    between atoms: O2_2  and  C5_12 
REMARK    2  A    between atoms: O3_3  and  C7_14 
REMARK    3  A    between atoms: O5_5  and  C9_16 
REMARK    4  A    between atoms: O6_6  and  C13_20 
REMARK    5  A    between atoms: O7_7  and  C15_22 
REMARK    6  A    between atoms: C3_10  and  C4_11 
ROOT
ATOM      1  O1  UNK A          46.745   9.210  -9.181  0.00  0.00    -0.306 OA
ATOM      2  O4  UNK A          42.714   9.750  -9.453  0.00  0.00    -0.284 OA
ATOM      3  C1  UNK A          44.580   8.376  -9.894  0.00  0.00     0.084 A 
ATOM      4  C2  UNK A          45.962   8.252  -9.771  0.00  0.00     0.096 A 
ATOM      5  C3  UNK A          46.132  10.345  -8.674  0.00  0.00     0.123 A 
ATOM      6  C5  UNK A          44.810  10.590  -8.735  0.00  0.00     0.152 A 
ATOM      7  C6  UNK A          43.924   9.583  -9.369  0.00  0.00     0.223 A 
ATOM      8  C7  UNK A          43.833   7.366 -10.506  0.00  0.00     0.085 A 
ATOM      9  C8  UNK A          46.607   7.116 -10.263  0.00  0.00     0.075 A 
ATOM     10  C9  UNK A          45.865   6.106 -10.875  0.00  0.00     0.071 A 
ATOM     11  C11 UNK A          44.480   6.232 -10.996  0.00  0.00     0.074 A 
ENDROOT
BRANCH   5  12
ATOM     12  C4  UNK A          47.084  11.291  -8.068  0.00  0.00     0.004 A 
ATOM     13  C10 UNK A          46.975  11.625  -6.718  0.00  0.00     0.053 A 
ATOM     14  C13 UNK A          47.878  12.519  -6.144  0.00  0.00     0.099 A 
ATOM     15  C15 UNK A          48.890  13.083  -6.922  0.00  0.00     0.098 A 
ATOM     16  C14 UNK A          49.000  12.750  -8.272  0.00  0.00     0.040 A 
ATOM     17  C12 UNK A          48.097  11.854  -8.845  0.00  0.00     0.017 A 
BRANCH  14  18
ATOM     18  O6  UNK A          47.760  12.839  -4.826  0.00  0.00    -0.358 OA
ATOM     19  H9  UNK A          47.121  13.562  -4.719  0.00  0.00     0.217 HD
ENDBRANCH  14  18
BRANCH  15  20
ATOM     20  O7  UNK A          49.779  13.957  -6.373  0.00  0.00    -0.358 OA
ATOM     21  H10 UNK A          50.452  14.196  -7.029  0.00  0.00     0.217 HD
ENDBRANCH  15  20
ENDBRANCH   5  12
BRANCH   6  22
ATOM     22  O2  UNK A          44.235  11.744  -8.250  0.00  0.00    -0.355 OA
ATOM     23  H6  UNK A          44.911  12.296  -7.823  0.00  0.00     0.218 HD
ENDBRANCH   6  22
BRANCH   8  24
ATOM     24  O3  UNK A          42.480   7.438 -10.652  0.00  0.00    -0.360 OA
ATOM     25  H7  UNK A          42.231   7.328 -11.582  0.00  0.00     0.217 HD
ENDBRANCH   8  24
BRANCH  10  26
ATOM     26  O5  UNK A          46.492   4.998 -11.355  0.00  0.00    -0.361 OA
ATOM     27  H8  UNK A          45.988   4.653 -12.112  0.00  0.00     0.217 HD
ENDBRANCH  10  26
TORSDOF 6
ENDMDL
