MODEL 1
REMARK VINA RESULT:      -6.1      0.000      0.000
REMARK  6 active torsions:
REMARK  status: ('A' for Active; 'I' for Inactive)
REMARK    1  A    between atoms: O2_2  and  C5_12 
REMARK    2  A    between atoms: O3_3  and  C7_14 
REMARK    3  A    between atoms: O5_5  and  C9_16 
REMARK    4  A    between atoms: O6_6  and  C13_20 
REMARK    5  A    between atoms: O7_7  and  C15_22 
REMARK    6  A    between atoms: C3_10  and  C4_11 
ROOT
ATOM      1  O1  UNK A          42.524  21.260  11.961  0.00  0.00    -0.306 OA
ATOM      2  O4  UNK A          45.944  19.112  11.414  0.00  0.00    -0.284 OA
ATOM      3  C1  UNK A          43.647  19.108  11.947  0.00  0.00     0.084 A 
ATOM      4  C2  UNK A          42.513  19.899  12.121  0.00  0.00     0.096 A 
ATOM      5  C3  UNK A          43.713  21.874  11.598  0.00  0.00     0.123 A 
ATOM      6  C5  UNK A          44.878  21.227  11.408  0.00  0.00     0.152 A 
ATOM      7  C6  UNK A          44.915  19.755  11.575  0.00  0.00     0.223 A 
ATOM      8  C7  UNK A          43.575  17.725  12.126  0.00  0.00     0.085 A 
ATOM      9  C8  UNK A          41.299  19.310  12.476  0.00  0.00     0.075 A 
ATOM     10  C9  UNK A          41.224  17.928  12.655  0.00  0.00     0.071 A 
ATOM     11  C11 UNK A          42.361  17.138  12.480  0.00  0.00     0.074 A 
ENDROOT
BRANCH   5  12
ATOM     12  C4  UNK A          43.587  23.335  11.459  0.00  0.00     0.004 A 
ATOM     13  C10 UNK A          43.743  23.934  10.208  0.00  0.00     0.053 A 
ATOM     14  C13 UNK A          43.622  25.317  10.077  0.00  0.00     0.099 A 
ATOM     15  C15 UNK A          43.348  26.103  11.197  0.00  0.00     0.098 A 
ATOM     16  C14 UNK A          43.192  25.504  12.447  0.00  0.00     0.040 A 
ATOM     17  C12 UNK A          43.312  24.121  12.579  0.00  0.00     0.017 A 
BRANCH  14  18
ATOM     18  O6  UNK A          43.778  25.891   8.852  0.00  0.00    -0.358 OA
ATOM     19  H9  UNK A          43.512  26.824   8.890  0.00  0.00     0.217 HD
ENDBRANCH  14  18
BRANCH  15  20
ATOM     20  O7  UNK A          43.226  27.455  11.081  0.00  0.00    -0.358 OA
ATOM     21  H10 UNK A          43.733  27.765  10.315  0.00  0.00     0.217 HD
ENDBRANCH  15  20
ENDBRANCH   5  12
BRANCH   6  22
ATOM     22  O2  UNK A          46.051  21.871  11.079  0.00  0.00    -0.355 OA
ATOM     23  H6  UNK A          46.516  22.144  11.887  0.00  0.00     0.218 HD
ENDBRANCH   6  22
BRANCH   8  24
ATOM     24  O3  UNK A          44.654  16.907  11.968  0.00  0.00    -0.360 OA
ATOM     25  H7  UNK A          45.184  16.883  12.779  0.00  0.00     0.217 HD
ENDBRANCH   8  24
BRANCH  10  26
ATOM     26  O5  UNK A          40.041  17.352  13.001  0.00  0.00    -0.361 OA
ATOM     27  H8  UNK A          39.765  16.746  12.292  0.00  0.00     0.217 HD
ENDBRANCH  10  26
TORSDOF 6
ENDMDL
MODEL 2
REMARK VINA RESULT:      -6.0      1.287      2.850
REMARK  6 active torsions:
REMARK  status: ('A' for Active; 'I' for Inactive)
REMARK    1  A    between atoms: O2_2  and  C5_12 
REMARK    2  A    between atoms: O3_3  and  C7_14 
REMARK    3  A    between atoms: O5_5  and  C9_16 
REMARK    4  A    between atoms: O6_6  and  C13_20 
REMARK    5  A    between atoms: O7_7  and  C15_22 
REMARK    6  A    between atoms: C3_10  and  C4_11 
ROOT
ATOM      1  O1  UNK A          44.313  21.244  11.770  0.00  0.00    -0.306 OA
ATOM      2  O4  UNK A          40.973  18.940  11.389  0.00  0.00    -0.284 OA
ATOM      3  C1  UNK A          43.294  19.042  11.796  0.00  0.00     0.084 A 
ATOM      4  C2  UNK A          44.398  19.884  11.913  0.00  0.00     0.096 A 
ATOM      5  C3  UNK A          43.073  21.806  11.511  0.00  0.00     0.123 A 
ATOM      6  C5  UNK A          41.933  21.106  11.367  0.00  0.00     0.152 A 
ATOM      7  C6  UNK A          41.977  19.630  11.508  0.00  0.00     0.223 A 
ATOM      8  C7  UNK A          43.441  17.661  11.951  0.00  0.00     0.085 A 
ATOM      9  C8  UNK A          45.658  19.349  12.184  0.00  0.00     0.075 A 
ATOM     10  C9  UNK A          45.808  17.971  12.339  0.00  0.00     0.071 A 
ATOM     11  C11 UNK A          44.701  17.129  12.223  0.00  0.00     0.074 A 
ENDROOT
BRANCH   5  12
ATOM     12  C4  UNK A          43.122  23.273  11.381  0.00  0.00     0.004 A 
ATOM     13  C10 UNK A          43.476  23.855  10.163  0.00  0.00     0.053 A 
ATOM     14  C13 UNK A          43.521  25.243  10.040  0.00  0.00     0.099 A 
ATOM     15  C15 UNK A          43.214  26.051  11.135  0.00  0.00     0.098 A 
ATOM     16  C14 UNK A          42.860  25.470  12.353  0.00  0.00     0.040 A 
ATOM     17  C12 UNK A          42.813  24.081  12.476  0.00  0.00     0.017 A 
BRANCH  14  18
ATOM     18  O6  UNK A          43.869  25.800   8.847  0.00  0.00    -0.358 OA
ATOM     19  H9  UNK A          43.733  25.157   8.132  0.00  0.00     0.217 HD
ENDBRANCH  14  18
BRANCH  15  20
ATOM     20  O7  UNK A          43.253  27.408  11.027  0.00  0.00    -0.358 OA
ATOM     21  H10 UNK A          43.105  27.667  10.104  0.00  0.00     0.217 HD
ENDBRANCH  15  20
ENDBRANCH   5  12
BRANCH   6  22
ATOM     22  O2  UNK A          40.720  21.693  11.076  0.00  0.00    -0.355 OA
ATOM     23  H6  UNK A          40.071  21.467  11.763  0.00  0.00     0.218 HD
ENDBRANCH   6  22
BRANCH   8  24
ATOM     24  O3  UNK A          42.394  16.794  11.847  0.00  0.00    -0.360 OA
ATOM     25  H7  UNK A          42.481  16.077  12.493  0.00  0.00     0.217 HD
ENDBRANCH   8  24
BRANCH  10  26
ATOM     26  O5  UNK A          47.036  17.447  12.604  0.00  0.00    -0.361 OA
ATOM     27  H8  UNK A          47.352  16.969  11.818  0.00  0.00     0.217 HD
ENDBRANCH  10  26
TORSDOF 6
ENDMDL
MODEL 3
REMARK VINA RESULT:      -5.9      4.961      6.353
REMARK  6 active torsions:
REMARK  status: ('A' for Active; 'I' for Inactive)
REMARK    1  A    between atoms: O2_2  and  C5_12 
REMARK    2  A    between atoms: O3_3  and  C7_14 
REMARK    3  A    between atoms: O5_5  and  C9_16 
REMARK    4  A    between atoms: O6_6  and  C13_20 
REMARK    5  A    between atoms: O7_7  and  C15_22 
REMARK    6  A    between atoms: C3_10  and  C4_11 
ROOT
ATOM      1  O1  UNK A          38.948  22.052  11.034  0.00  0.00    -0.306 OA
ATOM      2  O4  UNK A          37.815  19.562  14.055  0.00  0.00    -0.284 OA
ATOM      3  C1  UNK A          39.389  20.078  12.376  0.00  0.00     0.084 A 
ATOM      4  C2  UNK A          39.720  20.966  11.354  0.00  0.00     0.096 A 
ATOM      5  C3  UNK A          37.795  22.284  11.768  0.00  0.00     0.123 A 
ATOM      6  C5  UNK A          37.360  21.501  12.772  0.00  0.00     0.152 A 
ATOM      7  C6  UNK A          38.160  20.311  13.150  0.00  0.00     0.223 A 
ATOM      8  C7  UNK A          40.214  18.986  12.656  0.00  0.00     0.085 A 
ATOM      9  C8  UNK A          40.880  20.765  10.604  0.00  0.00     0.075 A 
ATOM     10  C9  UNK A          41.707  19.676  10.881  0.00  0.00     0.071 A 
ATOM     11  C11 UNK A          41.373  18.789  11.906  0.00  0.00     0.074 A 
ENDROOT
BRANCH   5  12
ATOM     12  C4  UNK A          37.061  23.481  11.323  0.00  0.00     0.004 A 
ATOM     13  C10 UNK A          37.365  24.730  11.866  0.00  0.00     0.053 A 
ATOM     14  C13 UNK A          36.670  25.863  11.443  0.00  0.00     0.099 A 
ATOM     15  C15 UNK A          35.670  25.747  10.478  0.00  0.00     0.098 A 
ATOM     16  C14 UNK A          35.365  24.499   9.934  0.00  0.00     0.040 A 
ATOM     17  C12 UNK A          36.061  23.366  10.356  0.00  0.00     0.017 A 
BRANCH  14  18
ATOM     18  O6  UNK A          36.975  27.076  11.981  0.00  0.00    -0.358 OA
ATOM     19  H9  UNK A          36.916  27.763  11.297  0.00  0.00     0.217 HD
ENDBRANCH  14  18
BRANCH  15  20
ATOM     20  O7  UNK A          34.985  26.847  10.055  0.00  0.00    -0.358 OA
ATOM     21  H10 UNK A          35.327  27.135   9.195  0.00  0.00     0.217 HD
ENDBRANCH  15  20
ENDBRANCH   5  12
BRANCH   6  22
ATOM     22  O2  UNK A          36.191  21.740  13.461  0.00  0.00    -0.355 OA
ATOM     23  H6  UNK A          36.091  21.093  14.177  0.00  0.00     0.218 HD
ENDBRANCH   6  22
BRANCH   8  24
ATOM     24  O3  UNK A          39.936  18.089  13.644  0.00  0.00    -0.360 OA
ATOM     25  H7  UNK A          40.490  17.299  13.552  0.00  0.00     0.217 HD
ENDBRANCH   8  24
BRANCH  10  26
ATOM     26  O5  UNK A          42.838  19.479  10.152  0.00  0.00    -0.361 OA
ATOM     27  H8  UNK A          43.590  19.879  10.621  0.00  0.00     0.217 HD
ENDBRANCH  10  26
TORSDOF 6
ENDMDL
MODEL 4
REMARK VINA RESULT:      -5.6      7.438      9.572
REMARK  6 active torsions:
REMARK  status: ('A' for Active; 'I' for Inactive)
REMARK    1  A    between atoms: O2_2  and  C5_12 
REMARK    2  A    between atoms: O3_3  and  C7_14 
REMARK    3  A    between atoms: O5_5  and  C9_16 
REMARK    4  A    between atoms: O6_6  and  C13_20 
REMARK    5  A    between atoms: O7_7  and  C15_22 
REMARK    6  A    between atoms: C3_10  and  C4_11 
ROOT
ATOM      1  O1  UNK A          36.104  24.123  10.697  0.00  0.00    -0.306 OA
ATOM      2  O4  UNK A          33.679  22.946  13.754  0.00  0.00    -0.284 OA
ATOM      3  C1  UNK A          33.969  24.291  11.838  0.00  0.00     0.084 A 
ATOM      4  C2  UNK A          34.846  24.652  10.817  0.00  0.00     0.096 A 
ATOM      5  C3  UNK A          36.517  23.178  11.624  0.00  0.00     0.123 A 
ATOM      6  C5  UNK A          35.771  22.750  12.659  0.00  0.00     0.152 A 
ATOM      7  C6  UNK A          34.404  23.298  12.833  0.00  0.00     0.223 A 
ATOM      8  C7  UNK A          32.697  24.865  11.911  0.00  0.00     0.085 A 
ATOM      9  C8  UNK A          34.456  25.593   9.863  0.00  0.00     0.075 A 
ATOM     10  C9  UNK A          33.187  26.168   9.933  0.00  0.00     0.071 A 
ATOM     11  C11 UNK A          32.310  25.804  10.955  0.00  0.00     0.074 A 
ENDROOT
BRANCH   5  12
ATOM     12  C4  UNK A          37.886  22.692  11.380  0.00  0.00     0.004 A 
ATOM     13  C10 UNK A          38.125  21.751  10.379  0.00  0.00     0.053 A 
ATOM     14  C13 UNK A          39.421  21.292  10.147  0.00  0.00     0.099 A 
ATOM     15  C15 UNK A          40.479  21.773  10.919  0.00  0.00     0.098 A 
ATOM     16  C14 UNK A          40.241  22.715  11.920  0.00  0.00     0.040 A 
ATOM     17  C12 UNK A          38.944  23.174  12.151  0.00  0.00     0.017 A 
BRANCH  14  18
ATOM     18  O6  UNK A          39.642  20.372   9.168  0.00  0.00    -0.358 OA
ATOM     19  H9  UNK A          40.571  20.408   8.887  0.00  0.00     0.217 HD
ENDBRANCH  14  18
BRANCH  15  20
ATOM     20  O7  UNK A          41.751  21.334  10.701  0.00  0.00    -0.358 OA
ATOM     21  H10 UNK A          41.733  20.550  10.129  0.00  0.00     0.217 HD
ENDBRANCH  15  20
ENDBRANCH   5  12
BRANCH   6  22
ATOM     22  O2  UNK A          36.223  21.833  13.583  0.00  0.00    -0.355 OA
ATOM     23  H6  UNK A          37.117  22.073  13.877  0.00  0.00     0.218 HD
ENDBRANCH   6  22
BRANCH   8  24
ATOM     24  O3  UNK A          31.802  24.546  12.888  0.00  0.00    -0.360 OA
ATOM     25  H7  UNK A          31.434  25.349  13.287  0.00  0.00     0.217 HD
ENDBRANCH   8  24
BRANCH  10  26
ATOM     26  O5  UNK A          32.805  27.085   9.003  0.00  0.00    -0.361 OA
ATOM     27  H8  UNK A          33.092  26.783   8.124  0.00  0.00     0.217 HD
ENDBRANCH  10  26
TORSDOF 6
ENDMDL
MODEL 5
REMARK VINA RESULT:      -5.6      2.941      5.154
REMARK  6 active torsions:
REMARK  status: ('A' for Active; 'I' for Inactive)
REMARK    1  A    between atoms: O2_2  and  C5_12 
REMARK    2  A    between atoms: O3_3  and  C7_14 
REMARK    3  A    between atoms: O5_5  and  C9_16 
REMARK    4  A    between atoms: O6_6  and  C13_20 
REMARK    5  A    between atoms: O7_7  and  C15_22 
REMARK    6  A    between atoms: C3_10  and  C4_11 
ROOT
ATOM      1  O1  UNK A          42.499  21.381  10.777  0.00  0.00    -0.306 OA
ATOM      2  O4  UNK A          43.129  17.561  12.050  0.00  0.00    -0.284 OA
ATOM      3  C1  UNK A          44.048  19.564  11.209  0.00  0.00     0.084 A 
ATOM      4  C2  UNK A          43.766  20.861  10.784  0.00  0.00     0.096 A 
ATOM      5  C3  UNK A          41.454  20.586  11.223  0.00  0.00     0.123 A 
ATOM      6  C5  UNK A          41.590  19.317  11.650  0.00  0.00     0.152 A 
ATOM      7  C6  UNK A          42.943  18.710  11.671  0.00  0.00     0.223 A 
ATOM      8  C7  UNK A          45.361  19.086  11.193  0.00  0.00     0.085 A 
ATOM      9  C8  UNK A          44.798  21.689  10.339  0.00  0.00     0.075 A 
ATOM     10  C9  UNK A          46.110  21.215  10.322  0.00  0.00     0.071 A 
ATOM     11  C11 UNK A          46.390  19.916  10.748  0.00  0.00     0.074 A 
ENDROOT
BRANCH   5  12
ATOM     12  C4  UNK A          40.148  21.266  11.163  0.00  0.00     0.004 A 
ATOM     13  C10 UNK A          39.754  22.115  12.198  0.00  0.00     0.053 A 
ATOM     14  C13 UNK A          38.519  22.758  12.140  0.00  0.00     0.099 A 
ATOM     15  C15 UNK A          37.675  22.552  11.048  0.00  0.00     0.098 A 
ATOM     16  C14 UNK A          38.068  21.703  10.014  0.00  0.00     0.040 A 
ATOM     17  C12 UNK A          39.305  21.060  10.071  0.00  0.00     0.017 A 
BRANCH  14  18
ATOM     18  O6  UNK A          38.144  23.584  13.157  0.00  0.00    -0.358 OA
ATOM     19  H9  UNK A          38.750  23.476  13.908  0.00  0.00     0.217 HD
ENDBRANCH  14  18
BRANCH  15  20
ATOM     20  O7  UNK A          36.466  23.177  10.980  0.00  0.00    -0.358 OA
ATOM     21  H10 UNK A          35.754  22.522  11.061  0.00  0.00     0.217 HD
ENDBRANCH  15  20
ENDBRANCH   5  12
BRANCH   6  22
ATOM     22  O2  UNK A          40.526  18.542  12.057  0.00  0.00    -0.355 OA
ATOM     23  H6  UNK A          40.089  18.149  11.284  0.00  0.00     0.218 HD
ENDBRANCH   6  22
BRANCH   8  24
ATOM     24  O3  UNK A          45.690  17.827  11.597  0.00  0.00    -0.360 OA
ATOM     25  H7  UNK A          45.878  17.263  10.832  0.00  0.00     0.217 HD
ENDBRANCH   8  24
BRANCH  10  26
ATOM     26  O5  UNK A          47.117  22.021   9.889  0.00  0.00    -0.361 OA
ATOM     27  H8  UNK A          47.896  21.474   9.691  0.00  0.00     0.217 HD
ENDBRANCH  10  26
TORSDOF 6
ENDMDL
MODEL 6
REMARK VINA RESULT:      -5.5      4.581      6.047
REMARK  6 active torsions:
REMARK  status: ('A' for Active; 'I' for Inactive)
REMARK    1  A    between atoms: O2_2  and  C5_12 
REMARK    2  A    between atoms: O3_3  and  C7_14 
REMARK    3  A    between atoms: O5_5  and  C9_16 
REMARK    4  A    between atoms: O6_6  and  C13_20 
REMARK    5  A    between atoms: O7_7  and  C15_22 
REMARK    6  A    between atoms: C3_10  and  C4_11 
ROOT
ATOM      1  O1  UNK A          40.225  22.843  11.386  0.00  0.00    -0.306 OA
ATOM      2  O4  UNK A          40.609  18.816  11.879  0.00  0.00    -0.284 OA
ATOM      3  C1  UNK A          41.644  20.875  11.377  0.00  0.00     0.084 A 
ATOM      4  C2  UNK A          41.447  22.245  11.221  0.00  0.00     0.096 A 
ATOM      5  C3  UNK A          39.142  22.051  11.735  0.00  0.00     0.123 A 
ATOM      6  C5  UNK A          39.197  20.718  11.907  0.00  0.00     0.152 A 
ATOM      7  C6  UNK A          40.497  20.027  11.734  0.00  0.00     0.223 A 
ATOM      8  C7  UNK A          42.914  20.320  11.195  0.00  0.00     0.085 A 
ATOM      9  C8  UNK A          42.519  23.071  10.880  0.00  0.00     0.075 A 
ATOM     10  C9  UNK A          43.788  22.521  10.698  0.00  0.00     0.071 A 
ATOM     11  C11 UNK A          43.984  21.147  10.855  0.00  0.00     0.074 A 
ENDROOT
BRANCH   5  12
ATOM     12  C4  UNK A          37.892  22.818  11.881  0.00  0.00     0.004 A 
ATOM     13  C10 UNK A          37.032  22.965  10.792  0.00  0.00     0.053 A 
ATOM     14  C13 UNK A          35.848  23.689  10.931  0.00  0.00     0.099 A 
ATOM     15  C15 UNK A          35.525  24.268  12.158  0.00  0.00     0.098 A 
ATOM     16  C14 UNK A          36.385  24.121  13.247  0.00  0.00     0.040 A 
ATOM     17  C12 UNK A          37.568  23.396  13.108  0.00  0.00     0.017 A 
BRANCH  14  18
ATOM     18  O6  UNK A          35.017  23.827   9.861  0.00  0.00    -0.358 OA
ATOM     19  H9  UNK A          35.243  23.170   9.183  0.00  0.00     0.217 HD
ENDBRANCH  14  18
BRANCH  15  20
ATOM     20  O7  UNK A          34.371  24.977  12.307  0.00  0.00    -0.358 OA
ATOM     21  H10 UNK A          33.933  24.720  13.133  0.00  0.00     0.217 HD
ENDBRANCH  15  20
ENDBRANCH   5  12
BRANCH   6  22
ATOM     22  O2  UNK A          38.094  19.954  12.222  0.00  0.00    -0.355 OA
ATOM     23  H6  UNK A          37.283  20.432  11.985  0.00  0.00     0.218 HD
ENDBRANCH   6  22
BRANCH   8  24
ATOM     24  O3  UNK A          43.160  18.987  11.335  0.00  0.00    -0.360 OA
ATOM     25  H7  UNK A          43.978  18.843  11.835  0.00  0.00     0.217 HD
ENDBRANCH   8  24
BRANCH  10  26
ATOM     26  O5  UNK A          44.835  23.323  10.366  0.00  0.00    -0.361 OA
ATOM     27  H8  UNK A          44.890  23.387   9.396  0.00  0.00     0.217 HD
ENDBRANCH  10  26
TORSDOF 6
ENDMDL
MODEL 7
REMARK VINA RESULT:      -5.5      2.769      5.628
REMARK  6 active torsions:
REMARK  status: ('A' for Active; 'I' for Inactive)
REMARK    1  A    between atoms: O2_2  and  C5_12 
REMARK    2  A    between atoms: O3_3  and  C7_14 
REMARK    3  A    between atoms: O5_5  and  C9_16 
REMARK    4  A    between atoms: O6_6  and  C13_20 
REMARK    5  A    between atoms: O7_7  and  C15_22 
REMARK    6  A    between atoms: C3_10  and  C4_11 
ROOT
ATOM      1  O1  UNK A          43.672  20.270  10.543  0.00  0.00    -0.306 OA
ATOM      2  O4  UNK A          43.724  24.235  11.483  0.00  0.00    -0.284 OA
ATOM      3  C1  UNK A          42.460  22.262  11.216  0.00  0.00     0.084 A 
ATOM      4  C2  UNK A          42.509  20.909  10.883  0.00  0.00     0.096 A 
ATOM      5  C3  UNK A          44.852  20.997  10.543  0.00  0.00     0.123 A 
ATOM      6  C5  UNK A          44.940  22.308  10.836  0.00  0.00     0.152 A 
ATOM      7  C6  UNK A          43.706  23.043  11.205  0.00  0.00     0.223 A 
ATOM      8  C7  UNK A          41.244  22.861  11.553  0.00  0.00     0.085 A 
ATOM      9  C8  UNK A          41.340  20.148  10.884  0.00  0.00     0.075 A 
ATOM     10  C9  UNK A          40.124  20.743  11.221  0.00  0.00     0.071 A 
ATOM     11  C11 UNK A          40.077  22.098  11.555  0.00  0.00     0.074 A 
ENDROOT
BRANCH   5  12
ATOM     12  C4  UNK A          46.025  20.191  10.160  0.00  0.00     0.004 A 
ATOM     13  C10 UNK A          46.716  20.478   8.983  0.00  0.00     0.053 A 
ATOM     14  C13 UNK A          47.826  19.716   8.622  0.00  0.00     0.099 A 
ATOM     15  C15 UNK A          48.246  18.665   9.438  0.00  0.00     0.098 A 
ATOM     16  C14 UNK A          47.555  18.378  10.615  0.00  0.00     0.040 A 
ATOM     17  C12 UNK A          46.445  19.141  10.977  0.00  0.00     0.017 A 
BRANCH  14  18
ATOM     18  O6  UNK A          48.492  20.004   7.469  0.00  0.00    -0.358 OA
ATOM     19  H9  UNK A          48.994  20.828   7.577  0.00  0.00     0.217 HD
ENDBRANCH  14  18
BRANCH  15  20
ATOM     20  O7  UNK A          49.330  17.914   9.097  0.00  0.00    -0.358 OA
ATOM     21  H10 UNK A          49.888  18.408   8.475  0.00  0.00     0.217 HD
ENDBRANCH  15  20
ENDBRANCH   5  12
BRANCH   6  22
ATOM     22  O2  UNK A          46.125  23.010  10.795  0.00  0.00    -0.355 OA
ATOM     23  H6  UNK A          45.980  23.878  10.384  0.00  0.00     0.218 HD
ENDBRANCH   6  22
BRANCH   8  24
ATOM     24  O3  UNK A          41.142  24.179  11.886  0.00  0.00    -0.360 OA
ATOM     25  H7  UNK A          40.395  24.589  11.425  0.00  0.00     0.217 HD
ENDBRANCH   8  24
BRANCH  10  26
ATOM     26  O5  UNK A          38.983  20.002  11.223  0.00  0.00    -0.361 OA
ATOM     27  H8  UNK A          39.185  19.110  11.553  0.00  0.00     0.217 HD
ENDBRANCH  10  26
TORSDOF 6
ENDMDL
MODEL 8
REMARK VINA RESULT:      -5.5      2.515      5.980
REMARK  6 active torsions:
REMARK  status: ('A' for Active; 'I' for Inactive)
REMARK    1  A    between atoms: O2_2  and  C5_12 
REMARK    2  A    between atoms: O3_3  and  C7_14 
REMARK    3  A    between atoms: O5_5  and  C9_16 
REMARK    4  A    between atoms: O6_6  and  C13_20 
REMARK    5  A    between atoms: O7_7  and  C15_22 
REMARK    6  A    between atoms: C3_10  and  C4_11 
ROOT
ATOM      1  O1  UNK A          43.597  22.056  11.348  0.00  0.00    -0.306 OA
ATOM      2  O4  UNK A          40.047  20.091  10.968  0.00  0.00    -0.284 OA
ATOM      3  C1  UNK A          41.179  22.078  11.548  0.00  0.00     0.084 A 
ATOM      4  C2  UNK A          42.424  22.693  11.658  0.00  0.00     0.096 A 
ATOM      5  C3  UNK A          43.541  20.748  10.894  0.00  0.00     0.123 A 
ATOM      6  C5  UNK A          42.406  20.039  10.752  0.00  0.00     0.152 A 
ATOM      7  C6  UNK A          41.112  20.685  11.080  0.00  0.00     0.223 A 
ATOM      8  C7  UNK A          40.016  22.777  11.880  0.00  0.00     0.085 A 
ATOM      9  C8  UNK A          42.514  24.013  12.103  0.00  0.00     0.075 A 
ATOM     10  C9  UNK A          41.354  24.714  12.434  0.00  0.00     0.071 A 
ATOM     11  C11 UNK A          40.108  24.096  12.323  0.00  0.00     0.074 A 
ENDROOT
BRANCH   5  12
ATOM     12  C4  UNK A          44.869  20.183  10.598  0.00  0.00     0.004 A 
ATOM     13  C10 UNK A          45.581  20.622   9.481  0.00  0.00     0.053 A 
ATOM     14  C13 UNK A          46.839  20.089   9.202  0.00  0.00     0.099 A 
ATOM     15  C15 UNK A          47.384  19.114  10.038  0.00  0.00     0.098 A 
ATOM     16  C14 UNK A          46.672  18.675  11.154  0.00  0.00     0.040 A 
ATOM     17  C12 UNK A          45.415  19.209  11.434  0.00  0.00     0.017 A 
BRANCH  14  18
ATOM     18  O6  UNK A          47.524  20.524   8.109  0.00  0.00    -0.358 OA
ATOM     19  H9  UNK A          48.242  21.116   8.386  0.00  0.00     0.217 HD
ENDBRANCH  14  18
BRANCH  15  20
ATOM     20  O7  UNK A          48.613  18.586   9.776  0.00  0.00    -0.358 OA
ATOM     21  H10 UNK A          49.247  18.882  10.448  0.00  0.00     0.217 HD
ENDBRANCH  15  20
ENDBRANCH   5  12
BRANCH   6  22
ATOM     22  O2  UNK A          42.386  18.727  10.328  0.00  0.00    -0.355 OA
ATOM     23  H6  UNK A          42.756  18.152  11.018  0.00  0.00     0.218 HD
ENDBRANCH   6  22
BRANCH   8  24
ATOM     24  O3  UNK A          38.774  22.222  11.790  0.00  0.00    -0.360 OA
ATOM     25  H7  UNK A          38.194  22.772  11.242  0.00  0.00     0.217 HD
ENDBRANCH   8  24
BRANCH  10  26
ATOM     26  O5  UNK A          41.439  26.001  12.867  0.00  0.00    -0.361 OA
ATOM     27  H8  UNK A          41.806  26.008  13.769  0.00  0.00     0.217 HD
ENDBRANCH  10  26
TORSDOF 6
ENDMDL
MODEL 9
REMARK VINA RESULT:      -5.5      2.789      5.921
REMARK  6 active torsions:
REMARK  status: ('A' for Active; 'I' for Inactive)
REMARK    1  A    between atoms: O2_2  and  C5_12 
REMARK    2  A    between atoms: O3_3  and  C7_14 
REMARK    3  A    between atoms: O5_5  and  C9_16 
REMARK    4  A    between atoms: O6_6  and  C13_20 
REMARK    5  A    between atoms: O7_7  and  C15_22 
REMARK    6  A    between atoms: C3_10  and  C4_11 
ROOT
ATOM      1  O1  UNK A          44.163  20.894  10.171  0.00  0.00    -0.306 OA
ATOM      2  O4  UNK A          46.017  23.549  12.646  0.00  0.00    -0.284 OA
ATOM      3  C1  UNK A          46.188  22.063  10.823  0.00  0.00     0.084 A 
ATOM      4  C2  UNK A          45.497  21.165  10.011  0.00  0.00     0.096 A 
ATOM      5  C3  UNK A          43.470  21.552  11.175  0.00  0.00     0.123 A 
ATOM      6  C5  UNK A          44.020  22.434  12.030  0.00  0.00     0.152 A 
ATOM      7  C6  UNK A          45.461  22.754  11.899  0.00  0.00     0.223 A 
ATOM      8  C7  UNK A          47.549  22.299  10.614  0.00  0.00     0.085 A 
ATOM      9  C8  UNK A          46.165  20.495   8.986  0.00  0.00     0.075 A 
ATOM     10  C9  UNK A          47.524  20.728   8.774  0.00  0.00     0.071 A 
ATOM     11  C11 UNK A          48.214  21.628   9.587  0.00  0.00     0.074 A 
ENDROOT
BRANCH   5  12
ATOM     12  C4  UNK A          42.048  21.171  11.237  0.00  0.00     0.004 A 
ATOM     13  C10 UNK A          41.662  20.022  11.928  0.00  0.00     0.053 A 
ATOM     14  C13 UNK A          40.316  19.662  11.988  0.00  0.00     0.099 A 
ATOM     15  C15 UNK A          39.355  20.450  11.354  0.00  0.00     0.098 A 
ATOM     16  C14 UNK A          39.740  21.599  10.663  0.00  0.00     0.040 A 
ATOM     17  C12 UNK A          41.086  21.959  10.604  0.00  0.00     0.017 A 
BRANCH  14  18
ATOM     18  O6  UNK A          39.952  18.538  12.665  0.00  0.00    -0.358 OA
ATOM     19  H9  UNK A          40.376  18.528  13.538  0.00  0.00     0.217 HD
ENDBRANCH  14  18
BRANCH  15  20
ATOM     20  O7  UNK A          38.037  20.109  11.407  0.00  0.00    -0.358 OA
ATOM     21  H10 UNK A          37.948  19.185  11.686  0.00  0.00     0.217 HD
ENDBRANCH  15  20
ENDBRANCH   5  12
BRANCH   6  22
ATOM     22  O2  UNK A          43.309  23.047  13.039  0.00  0.00    -0.355 OA
ATOM     23  H6  UNK A          43.220  23.995  12.852  0.00  0.00     0.218 HD
ENDBRANCH   6  22
BRANCH   8  24
ATOM     24  O3  UNK A          48.271  23.166  11.378  0.00  0.00    -0.360 OA
ATOM     25  H7  UNK A          48.153  22.968  12.320  0.00  0.00     0.217 HD
ENDBRANCH   8  24
BRANCH  10  26
ATOM     26  O5  UNK A          48.177  20.076   7.774  0.00  0.00    -0.361 OA
ATOM     27  H8  UNK A          48.875  20.655   7.423  0.00  0.00     0.217 HD
ENDBRANCH  10  26
TORSDOF 6
ENDMDL
MODEL 10
REMARK VINA RESULT:      -5.4      2.474      6.448
REMARK  6 active torsions:
REMARK  status: ('A' for Active; 'I' for Inactive)
REMARK    1  A    between atoms: O2_2  and  C5_12 
REMARK    2  A    between atoms: O3_3  and  C7_14 
REMARK    3  A    between atoms: O5_5  and  C9_16 
REMARK    4  A    between atoms: O6_6  and  C13_20 
REMARK    5  A    between atoms: O7_7  and  C15_22 
REMARK    6  A    between atoms: C3_10  and  C4_11 
ROOT
ATOM      1  O1  UNK A          44.860  22.998  10.763  0.00  0.00    -0.306 OA
ATOM      2  O4  UNK A          41.177  21.473  11.611  0.00  0.00    -0.284 OA
ATOM      3  C1  UNK A          42.573  23.370  11.484  0.00  0.00     0.084 A 
ATOM      4  C2  UNK A          43.853  23.828  11.180  0.00  0.00     0.096 A 
ATOM      5  C3  UNK A          44.589  21.645  10.625  0.00  0.00     0.123 A 
ATOM      6  C5  UNK A          43.400  21.075  10.894  0.00  0.00     0.152 A 
ATOM      7  C6  UNK A          42.282  21.934  11.353  0.00  0.00     0.223 A 
ATOM      8  C7  UNK A          41.585  24.263  11.906  0.00  0.00     0.085 A 
ATOM      9  C8  UNK A          44.154  25.186  11.299  0.00  0.00     0.075 A 
ATOM     10  C9  UNK A          43.171  26.081  11.719  0.00  0.00     0.071 A 
ATOM     11  C11 UNK A          41.889  25.620  12.023  0.00  0.00     0.074 A 
ENDROOT
BRANCH   5  12
ATOM     12  C4  UNK A          45.755  20.868  10.171  0.00  0.00     0.004 A 
ATOM     13  C10 UNK A          46.442  21.248   9.018  0.00  0.00     0.053 A 
ATOM     14  C13 UNK A          47.546  20.513   8.589  0.00  0.00     0.099 A 
ATOM     15  C15 UNK A          47.963  19.395   9.312  0.00  0.00     0.098 A 
ATOM     16  C14 UNK A          47.277  19.015  10.465  0.00  0.00     0.040 A 
ATOM     17  C12 UNK A          46.173  19.751  10.895  0.00  0.00     0.017 A 
BRANCH  14  18
ATOM     18  O6  UNK A          48.208  20.892   7.461  0.00  0.00    -0.358 OA
ATOM     19  H9  UNK A          49.040  21.332   7.700  0.00  0.00     0.217 HD
ENDBRANCH  14  18
BRANCH  15  20
ATOM     20  O7  UNK A          49.042  18.669   8.904  0.00  0.00    -0.358 OA
ATOM     21  H10 UNK A          49.850  19.033   9.298  0.00  0.00     0.217 HD
ENDBRANCH  15  20
ENDBRANCH   5  12
BRANCH   6  22
ATOM     22  O2  UNK A          43.172  19.721  10.778  0.00  0.00    -0.355 OA
ATOM     23  H6  UNK A          42.218  19.552  10.701  0.00  0.00     0.218 HD
ENDBRANCH   6  22
BRANCH   8  24
ATOM     24  O3  UNK A          40.319  23.867  12.215  0.00  0.00    -0.360 OA
ATOM     25  H7  UNK A          39.684  24.230  11.580  0.00  0.00     0.217 HD
ENDBRANCH   8  24
BRANCH  10  26
ATOM     26  O5  UNK A          43.462  27.405  11.835  0.00  0.00    -0.361 OA
ATOM     27  H8  UNK A          44.355  27.501  12.209  0.00  0.00     0.217 HD
ENDBRANCH  10  26
TORSDOF 6
ENDMDL
MODEL 11
REMARK VINA RESULT:      -5.4      2.055      6.857
REMARK  6 active torsions:
REMARK  status: ('A' for Active; 'I' for Inactive)
REMARK    1  A    between atoms: O2_2  and  C5_12 
REMARK    2  A    between atoms: O3_3  and  C7_14 
REMARK    3  A    between atoms: O5_5  and  C9_16 
REMARK    4  A    between atoms: O6_6  and  C13_20 
REMARK    5  A    between atoms: O7_7  and  C15_22 
REMARK    6  A    between atoms: C3_10  and  C4_11 
ROOT
ATOM      1  O1  UNK A          41.543  22.965  12.266  0.00  0.00    -0.306 OA
ATOM      2  O4  UNK A          44.676  25.276  11.060  0.00  0.00    -0.284 OA
ATOM      3  C1  UNK A          42.475  25.177  11.900  0.00  0.00     0.084 A 
ATOM      4  C2  UNK A          41.440  24.331  12.298  0.00  0.00     0.096 A 
ATOM      5  C3  UNK A          42.733  22.401  11.833  0.00  0.00     0.123 A 
ATOM      6  C5  UNK A          43.803  23.103  11.415  0.00  0.00     0.152 A 
ATOM      7  C6  UNK A          43.735  24.584  11.427  0.00  0.00     0.223 A 
ATOM      8  C7  UNK A          42.312  26.563  11.953  0.00  0.00     0.085 A 
ATOM      9  C8  UNK A          40.234  24.869  12.748  0.00  0.00     0.075 A 
ATOM     10  C9  UNK A          40.068  26.253  12.803  0.00  0.00     0.071 A 
ATOM     11  C11 UNK A          41.106  27.098  12.405  0.00  0.00     0.074 A 
ENDROOT
BRANCH   5  12
ATOM     12  C4  UNK A          42.711  20.928  11.848  0.00  0.00     0.004 A 
ATOM     13  C10 UNK A          43.188  20.234  12.960  0.00  0.00     0.053 A 
ATOM     14  C13 UNK A          43.165  18.840  12.976  0.00  0.00     0.099 A 
ATOM     15  C15 UNK A          42.667  18.139  11.877  0.00  0.00     0.098 A 
ATOM     16  C14 UNK A          42.190  18.832  10.765  0.00  0.00     0.040 A 
ATOM     17  C12 UNK A          42.211  20.227  10.750  0.00  0.00     0.017 A 
BRANCH  14  18
ATOM     18  O6  UNK A          43.635  18.173  14.066  0.00  0.00    -0.358 OA
ATOM     19  H9  UNK A          43.018  18.281  14.808  0.00  0.00     0.217 HD
ENDBRANCH  14  18
BRANCH  15  20
ATOM     20  O7  UNK A          42.638  16.776  11.881  0.00  0.00    -0.358 OA
ATOM     21  H10 UNK A          42.888  16.446  12.758  0.00  0.00     0.217 HD
ENDBRANCH  15  20
ENDBRANCH   5  12
BRANCH   6  22
ATOM     22  O2  UNK A          44.960  22.511  10.959  0.00  0.00    -0.355 OA
ATOM     23  H6  UNK A          45.720  22.834  11.470  0.00  0.00     0.218 HD
ENDBRANCH   6  22
BRANCH   8  24
ATOM     24  O3  UNK A          43.291  27.433  11.577  0.00  0.00    -0.360 OA
ATOM     25  H7  UNK A          43.462  28.078  12.279  0.00  0.00     0.217 HD
ENDBRANCH   8  24
BRANCH  10  26
ATOM     26  O5  UNK A          38.893  26.780  13.242  0.00  0.00    -0.361 OA
ATOM     27  H8  UNK A          38.332  26.061  13.582  0.00  0.00     0.217 HD
ENDBRANCH  10  26
TORSDOF 6
ENDMDL
MODEL 12
REMARK VINA RESULT:      -5.4      1.551      7.091
REMARK  6 active torsions:
REMARK  status: ('A' for Active; 'I' for Inactive)
REMARK    1  A    between atoms: O2_2  and  C5_12 
REMARK    2  A    between atoms: O3_3  and  C7_14 
REMARK    3  A    between atoms: O5_5  and  C9_16 
REMARK    4  A    between atoms: O6_6  and  C13_20 
REMARK    5  A    between atoms: O7_7  and  C15_22 
REMARK    6  A    between atoms: C3_10  and  C4_11 
ROOT
ATOM      1  O1  UNK A          43.061  22.110  11.374  0.00  0.00    -0.306 OA
ATOM      2  O4  UNK A          43.261  24.270  14.824  0.00  0.00    -0.284 OA
ATOM      3  C1  UNK A          43.354  24.257  12.468  0.00  0.00     0.084 A 
ATOM      4  C2  UNK A          43.277  23.462  11.326  0.00  0.00     0.096 A 
ATOM      5  C3  UNK A          42.900  21.510  12.613  0.00  0.00     0.123 A 
ATOM      6  C5  UNK A          42.961  22.160  13.790  0.00  0.00     0.152 A 
ATOM      7  C6  UNK A          43.197  23.624  13.786  0.00  0.00     0.223 A 
ATOM      8  C7  UNK A          43.577  25.631  12.357  0.00  0.00     0.085 A 
ATOM      9  C8  UNK A          43.425  24.039  10.063  0.00  0.00     0.075 A 
ATOM     10  C9  UNK A          43.647  25.411   9.948  0.00  0.00     0.071 A 
ATOM     11  C11 UNK A          43.724  26.205  11.094  0.00  0.00     0.074 A 
ENDROOT
BRANCH   5  12
ATOM     12  C4  UNK A          42.675  20.056  12.524  0.00  0.00     0.004 A 
ATOM     13  C10 UNK A          41.415  19.526  12.798  0.00  0.00     0.053 A 
ATOM     14  C13 UNK A          41.202  18.151  12.711  0.00  0.00     0.099 A 
ATOM     15  C15 UNK A          42.251  17.304  12.353  0.00  0.00     0.098 A 
ATOM     16  C14 UNK A          43.512  17.833  12.079  0.00  0.00     0.040 A 
ATOM     17  C12 UNK A          43.725  19.209  12.164  0.00  0.00     0.017 A 
BRANCH  14  18
ATOM     18  O6  UNK A          39.967  17.644  12.982  0.00  0.00    -0.358 OA
ATOM     19  H9  UNK A          39.598  17.233  12.184  0.00  0.00     0.217 HD
ENDBRANCH  14  18
BRANCH  15  20
ATOM     20  O7  UNK A          42.055  15.959  12.264  0.00  0.00    -0.358 OA
ATOM     21  H10 UNK A          41.889  15.593  13.146  0.00  0.00     0.217 HD
ENDBRANCH  15  20
ENDBRANCH   5  12
BRANCH   6  22
ATOM     22  O2  UNK A          42.829  21.528  15.007  0.00  0.00    -0.355 OA
ATOM     23  H6  UNK A          42.212  20.782  14.927  0.00  0.00     0.218 HD
ENDBRANCH   6  22
BRANCH   8  24
ATOM     24  O3  UNK A          43.661  26.452  13.441  0.00  0.00    -0.360 OA
ATOM     25  H7  UNK A          43.617  27.381  13.169  0.00  0.00     0.217 HD
ENDBRANCH   8  24
BRANCH  10  26
ATOM     26  O5  UNK A          43.791  25.975   8.719  0.00  0.00    -0.361 OA
ATOM     27  H8  UNK A          43.059  25.684   8.150  0.00  0.00     0.217 HD
ENDBRANCH  10  26
TORSDOF 6
ENDMDL
MODEL 13
REMARK VINA RESULT:      -5.4      3.656      4.495
REMARK  6 active torsions:
REMARK  status: ('A' for Active; 'I' for Inactive)
REMARK    1  A    between atoms: O2_2  and  C5_12 
REMARK    2  A    between atoms: O3_3  and  C7_14 
REMARK    3  A    between atoms: O5_5  and  C9_16 
REMARK    4  A    between atoms: O6_6  and  C13_20 
REMARK    5  A    between atoms: O7_7  and  C15_22 
REMARK    6  A    between atoms: C3_10  and  C4_11 
ROOT
ATOM      1  O1  UNK A          39.836  19.864  12.158  0.00  0.00    -0.306 OA
ATOM      2  O4  UNK A          43.564  20.641  10.707  0.00  0.00    -0.284 OA
ATOM      3  C1  UNK A          42.121  19.129  11.799  0.00  0.00     0.084 A 
ATOM      4  C2  UNK A          40.827  18.925  12.275  0.00  0.00     0.096 A 
ATOM      5  C3  UNK A          40.130  21.062  11.527  0.00  0.00     0.123 A 
ATOM      6  C5  UNK A          41.339  21.386  11.032  0.00  0.00     0.152 A 
ATOM      7  C6  UNK A          42.444  20.404  11.140  0.00  0.00     0.223 A 
ATOM      8  C7  UNK A          43.092  18.135  11.948  0.00  0.00     0.085 A 
ATOM      9  C8  UNK A          40.497  17.725  12.907  0.00  0.00     0.075 A 
ATOM     10  C9  UNK A          41.464  16.730  13.057  0.00  0.00     0.071 A 
ATOM     11  C11 UNK A          42.759  16.936  12.578  0.00  0.00     0.074 A 
ENDROOT
BRANCH   5  12
ATOM     12  C4  UNK A          38.979  21.980  11.468  0.00  0.00     0.004 A 
ATOM     13  C10 UNK A          38.861  23.013  12.398  0.00  0.00     0.053 A 
ATOM     14  C13 UNK A          37.772  23.882  12.341  0.00  0.00     0.099 A 
ATOM     15  C15 UNK A          36.798  23.716  11.355  0.00  0.00     0.098 A 
ATOM     16  C14 UNK A          36.916  22.683  10.426  0.00  0.00     0.040 A 
ATOM     17  C12 UNK A          38.006  21.814  10.482  0.00  0.00     0.017 A 
BRANCH  14  18
ATOM     18  O6  UNK A          37.666  24.887  13.254  0.00  0.00    -0.358 OA
ATOM     19  H9  UNK A          36.748  25.201  13.292  0.00  0.00     0.217 HD
ENDBRANCH  14  18
BRANCH  15  20
ATOM     20  O7  UNK A          35.730  24.560  11.288  0.00  0.00    -0.358 OA
ATOM     21  H10 UNK A          36.020  25.431  10.974  0.00  0.00     0.217 HD
ENDBRANCH  15  20
ENDBRANCH   5  12
BRANCH   6  22
ATOM     22  O2  UNK A          41.608  22.601  10.438  0.00  0.00    -0.355 OA
ATOM     23  H6  UNK A          41.880  23.245  11.113  0.00  0.00     0.218 HD
ENDBRANCH   6  22
BRANCH   8  24
ATOM     24  O3  UNK A          44.370  18.284  11.501  0.00  0.00    -0.360 OA
ATOM     25  H7  UNK A          44.987  18.340  12.246  0.00  0.00     0.217 HD
ENDBRANCH   8  24
BRANCH  10  26
ATOM     26  O5  UNK A          41.144  15.560  13.671  0.00  0.00    -0.361 OA
ATOM     27  H8  UNK A          41.949  15.178  14.063  0.00  0.00     0.217 HD
ENDBRANCH  10  26
TORSDOF 6
ENDMDL
MODEL 14
REMARK VINA RESULT:      -5.4      2.519      4.442
REMARK  6 active torsions:
REMARK  status: ('A' for Active; 'I' for Inactive)
REMARK    1  A    between atoms: O2_2  and  C5_12 
REMARK    2  A    between atoms: O3_3  and  C7_14 
REMARK    3  A    between atoms: O5_5  and  C9_16 
REMARK    4  A    between atoms: O6_6  and  C13_20 
REMARK    5  A    between atoms: O7_7  and  C15_22 
REMARK    6  A    between atoms: C3_10  and  C4_11 
ROOT
ATOM      1  O1  UNK A          44.626  19.777  11.072  0.00  0.00    -0.306 OA
ATOM      2  O4  UNK A          41.584  22.489  11.070  0.00  0.00    -0.284 OA
ATOM      3  C1  UNK A          42.294  20.284  11.512  0.00  0.00     0.084 A 
ATOM      4  C2  UNK A          43.375  19.405  11.488  0.00  0.00     0.096 A 
ATOM      5  C3  UNK A          44.828  21.088  10.671  0.00  0.00     0.123 A 
ATOM      6  C5  UNK A          43.869  22.032  10.639  0.00  0.00     0.152 A 
ATOM      7  C6  UNK A          42.497  21.674  11.075  0.00  0.00     0.223 A 
ATOM      8  C7  UNK A          41.039  19.847  11.945  0.00  0.00     0.085 A 
ATOM      9  C8  UNK A          43.206  18.080  11.895  0.00  0.00     0.075 A 
ATOM     10  C9  UNK A          41.955  17.641  12.328  0.00  0.00     0.071 A 
ATOM     11  C11 UNK A          40.874  18.524  12.352  0.00  0.00     0.074 A 
ENDROOT
BRANCH   5  12
ATOM     12  C4  UNK A          46.214  21.355  10.251  0.00  0.00     0.004 A 
ATOM     13  C10 UNK A          46.615  21.074   8.944  0.00  0.00     0.053 A 
ATOM     14  C13 UNK A          47.926  21.328   8.546  0.00  0.00     0.099 A 
ATOM     15  C15 UNK A          48.840  21.861   9.456  0.00  0.00     0.098 A 
ATOM     16  C14 UNK A          48.441  22.142  10.762  0.00  0.00     0.040 A 
ATOM     17  C12 UNK A          47.128  21.889  11.160  0.00  0.00     0.017 A 
BRANCH  14  18
ATOM     18  O6  UNK A          48.306  21.048   7.268  0.00  0.00    -0.358 OA
ATOM     19  H9  UNK A          47.582  20.599   6.802  0.00  0.00     0.217 HD
ENDBRANCH  14  18
BRANCH  15  20
ATOM     20  O7  UNK A          50.125  22.114   9.078  0.00  0.00    -0.358 OA
ATOM     21  H10 UNK A          50.169  22.968   8.620  0.00  0.00     0.217 HD
ENDBRANCH  15  20
ENDBRANCH   5  12
BRANCH   6  22
ATOM     22  O2  UNK A          44.094  23.320  10.203  0.00  0.00    -0.355 OA
ATOM     23  H6  UNK A          43.248  23.754  10.006  0.00  0.00     0.218 HD
ENDBRANCH   6  22
BRANCH   8  24
ATOM     24  O3  UNK A          39.951  20.666  11.987  0.00  0.00    -0.360 OA
ATOM     25  H7  UNK A          39.676  20.914  11.092  0.00  0.00     0.217 HD
ENDBRANCH   8  24
BRANCH  10  26
ATOM     26  O5  UNK A          41.788  16.351  12.726  0.00  0.00    -0.361 OA
ATOM     27  H8  UNK A          41.363  16.342  13.601  0.00  0.00     0.217 HD
ENDBRANCH  10  26
TORSDOF 6
ENDMDL
MODEL 15
REMARK VINA RESULT:      -5.4      3.493      5.547
REMARK  6 active torsions:
REMARK  status: ('A' for Active; 'I' for Inactive)
REMARK    1  A    between atoms: O2_2  and  C5_12 
REMARK    2  A    between atoms: O3_3  and  C7_14 
REMARK    3  A    between atoms: O5_5  and  C9_16 
REMARK    4  A    between atoms: O6_6  and  C13_20 
REMARK    5  A    between atoms: O7_7  and  C15_22 
REMARK    6  A    between atoms: C3_10  and  C4_11 
ROOT
ATOM      1  O1  UNK A          40.864  25.074  12.632  0.00  0.00    -0.306 OA
ATOM      2  O4  UNK A          44.456  25.489  10.753  0.00  0.00    -0.284 OA
ATOM      3  C1  UNK A          42.686  24.065  11.386  0.00  0.00     0.084 A 
ATOM      4  C2  UNK A          41.460  23.989  12.044  0.00  0.00     0.096 A 
ATOM      5  C3  UNK A          41.502  26.302  12.557  0.00  0.00     0.123 A 
ATOM      6  C5  UNK A          42.690  26.509  11.959  0.00  0.00     0.152 A 
ATOM      7  C6  UNK A          43.375  25.363  11.314  0.00  0.00     0.223 A 
ATOM      8  C7  UNK A          43.246  22.925  10.806  0.00  0.00     0.085 A 
ATOM      9  C8  UNK A          40.788  22.769  12.129  0.00  0.00     0.075 A 
ATOM     10  C9  UNK A          41.345  21.628  11.551  0.00  0.00     0.071 A 
ATOM     11  C11 UNK A          42.572  21.707  10.891  0.00  0.00     0.074 A 
ENDROOT
BRANCH   5  12
ATOM     12  C4  UNK A          40.755  27.381  13.227  0.00  0.00     0.004 A 
ATOM     13  C10 UNK A          39.641  27.948  12.609  0.00  0.00     0.053 A 
ATOM     14  C13 UNK A          38.933  28.968  13.244  0.00  0.00     0.099 A 
ATOM     15  C15 UNK A          39.342  29.423  14.498  0.00  0.00     0.098 A 
ATOM     16  C14 UNK A          40.456  28.856  15.117  0.00  0.00     0.040 A 
ATOM     17  C12 UNK A          41.163  27.835  14.482  0.00  0.00     0.017 A 
BRANCH  14  18
ATOM     18  O6  UNK A          37.848  29.515  12.630  0.00  0.00    -0.358 OA
ATOM     19  H9  UNK A          37.059  29.385  13.181  0.00  0.00     0.217 HD
ENDBRANCH  14  18
BRANCH  15  20
ATOM     20  O7  UNK A          38.658  30.418  15.130  0.00  0.00    -0.358 OA
ATOM     21  H10 UNK A          37.803  30.557  14.692  0.00  0.00     0.217 HD
ENDBRANCH  15  20
ENDBRANCH   5  12
BRANCH   6  22
ATOM     22  O2  UNK A          43.314  27.737  11.929  0.00  0.00    -0.355 OA
ATOM     23  H6  UNK A          42.915  28.326  12.590  0.00  0.00     0.218 HD
ENDBRANCH   6  22
BRANCH   8  24
ATOM     24  O3  UNK A          44.441  22.945  10.151  0.00  0.00    -0.360 OA
ATOM     25  H7  UNK A          44.358  22.535   9.277  0.00  0.00     0.217 HD
ENDBRANCH   8  24
BRANCH  10  26
ATOM     26  O5  UNK A          40.691  20.438  11.631  0.00  0.00    -0.361 OA
ATOM     27  H8  UNK A          40.758  20.101  12.541  0.00  0.00     0.217 HD
ENDBRANCH  10  26
TORSDOF 6
ENDMDL
MODEL 16
REMARK VINA RESULT:      -5.4      5.589      6.853
REMARK  6 active torsions:
REMARK  status: ('A' for Active; 'I' for Inactive)
REMARK    1  A    between atoms: O2_2  and  C5_12 
REMARK    2  A    between atoms: O3_3  and  C7_14 
REMARK    3  A    between atoms: O5_5  and  C9_16 
REMARK    4  A    between atoms: O6_6  and  C13_20 
REMARK    5  A    between atoms: O7_7  and  C15_22 
REMARK    6  A    between atoms: C3_10  and  C4_11 
ROOT
ATOM      1  O1  UNK A          38.556  22.035  11.352  0.00  0.00    -0.306 OA
ATOM      2  O4  UNK A          41.266  24.727  12.775  0.00  0.00    -0.284 OA
ATOM      3  C1  UNK A          40.869  22.614  11.806  0.00  0.00     0.084 A 
ATOM      4  C2  UNK A          39.893  21.737  11.336  0.00  0.00     0.096 A 
ATOM      5  C3  UNK A          38.159  23.268  11.846  0.00  0.00     0.123 A 
ATOM      6  C5  UNK A          38.998  24.200  12.337  0.00  0.00     0.152 A 
ATOM      7  C6  UNK A          40.454  23.918  12.343  0.00  0.00     0.223 A 
ATOM      8  C7  UNK A          42.219  22.254  11.765  0.00  0.00     0.085 A 
ATOM      9  C8  UNK A          40.262  20.492  10.823  0.00  0.00     0.075 A 
ATOM     10  C9  UNK A          41.609  20.130  10.780  0.00  0.00     0.071 A 
ATOM     11  C11 UNK A          42.585  21.010  11.251  0.00  0.00     0.074 A 
ENDROOT
BRANCH   5  12
ATOM     12  C4  UNK A          36.699  23.461  11.807  0.00  0.00     0.004 A 
ATOM     13  C10 UNK A          36.121  24.213  10.784  0.00  0.00     0.053 A 
ATOM     14  C13 UNK A          34.739  24.394  10.746  0.00  0.00     0.099 A 
ATOM     15  C15 UNK A          33.934  23.824  11.733  0.00  0.00     0.098 A 
ATOM     16  C14 UNK A          34.511  23.073  12.757  0.00  0.00     0.040 A 
ATOM     17  C12 UNK A          35.894  22.891  12.794  0.00  0.00     0.017 A 
BRANCH  14  18
ATOM     18  O6  UNK A          34.186  25.130   9.743  0.00  0.00    -0.358 OA
ATOM     19  H9  UNK A          33.233  24.952   9.692  0.00  0.00     0.217 HD
ENDBRANCH  14  18
BRANCH  15  20
ATOM     20  O7  UNK A          32.582  23.993  11.706  0.00  0.00    -0.358 OA
ATOM     21  H10 UNK A          32.321  24.415  10.872  0.00  0.00     0.217 HD
ENDBRANCH  15  20
ENDBRANCH   5  12
BRANCH   6  22
ATOM     22  O2  UNK A          38.569  25.404  12.851  0.00  0.00    -0.355 OA
ATOM     23  H6  UNK A          38.575  26.081  12.155  0.00  0.00     0.218 HD
ENDBRANCH   6  22
BRANCH   8  24
ATOM     24  O3  UNK A          43.211  23.074  12.211  0.00  0.00    -0.360 OA
ATOM     25  H7  UNK A          43.040  23.350  13.124  0.00  0.00     0.217 HD
ENDBRANCH   8  24
BRANCH  10  26
ATOM     26  O5  UNK A          41.970  18.918  10.281  0.00  0.00    -0.361 OA
ATOM     27  H8  UNK A          42.670  18.541  10.841  0.00  0.00     0.217 HD
ENDBRANCH  10  26
TORSDOF 6
ENDMDL
MODEL 17
REMARK VINA RESULT:      -5.3      4.700      7.822
REMARK  6 active torsions:
REMARK  status: ('A' for Active; 'I' for Inactive)
REMARK    1  A    between atoms: O2_2  and  C5_12 
REMARK    2  A    between atoms: O3_3  and  C7_14 
REMARK    3  A    between atoms: O5_5  and  C9_16 
REMARK    4  A    between atoms: O6_6  and  C13_20 
REMARK    5  A    between atoms: O7_7  and  C15_22 
REMARK    6  A    between atoms: C3_10  and  C4_11 
ROOT
ATOM      1  O1  UNK A          38.140  22.264  11.604  0.00  0.00    -0.306 OA
ATOM      2  O4  UNK A          39.772  25.653  13.173  0.00  0.00    -0.284 OA
ATOM      3  C1  UNK A          37.990  24.654  11.994  0.00  0.00     0.084 A 
ATOM      4  C2  UNK A          37.486  23.461  11.480  0.00  0.00     0.096 A 
ATOM      5  C3  UNK A          39.349  22.237  12.283  0.00  0.00     0.123 A 
ATOM      6  C5  UNK A          39.947  23.317  12.819  0.00  0.00     0.152 A 
ATOM      7  C6  UNK A          39.278  24.635  12.704  0.00  0.00     0.223 A 
ATOM      8  C7  UNK A          37.279  25.847  11.836  0.00  0.00     0.085 A 
ATOM      9  C8  UNK A          36.267  23.454  10.800  0.00  0.00     0.075 A 
ATOM     10  C9  UNK A          35.555  24.643  10.640  0.00  0.00     0.071 A 
ATOM     11  C11 UNK A          36.061  25.836  11.157  0.00  0.00     0.074 A 
ENDROOT
BRANCH   5  12
ATOM     12  C4  UNK A          39.944  20.890  12.345  0.00  0.00     0.004 A 
ATOM     13  C10 UNK A          40.774  20.445  11.316  0.00  0.00     0.053 A 
ATOM     14  C13 UNK A          41.339  19.172  11.375  0.00  0.00     0.099 A 
ATOM     15  C15 UNK A          41.071  18.341  12.464  0.00  0.00     0.098 A 
ATOM     16  C14 UNK A          40.241  18.785  13.493  0.00  0.00     0.040 A 
ATOM     17  C12 UNK A          39.677  20.059  13.434  0.00  0.00     0.017 A 
BRANCH  14  18
ATOM     18  O6  UNK A          42.146  18.748  10.364  0.00  0.00    -0.358 OA
ATOM     19  H9  UNK A          41.906  19.201   9.540  0.00  0.00     0.217 HD
ENDBRANCH  14  18
BRANCH  15  20
ATOM     20  O7  UNK A          41.617  17.095  12.534  0.00  0.00    -0.358 OA
ATOM     21  H10 UNK A          42.495  17.098  12.120  0.00  0.00     0.217 HD
ENDBRANCH  15  20
ENDBRANCH   5  12
BRANCH   6  22
ATOM     22  O2  UNK A          41.165  23.262  13.460  0.00  0.00    -0.355 OA
ATOM     23  H6  UNK A          41.790  23.870  13.033  0.00  0.00     0.218 HD
ENDBRANCH   6  22
BRANCH   8  24
ATOM     24  O3  UNK A          37.727  27.039  12.319  0.00  0.00    -0.360 OA
ATOM     25  H7  UNK A          38.231  27.514  11.641  0.00  0.00     0.217 HD
ENDBRANCH   8  24
BRANCH  10  26
ATOM     26  O5  UNK A          34.366  24.638   9.978  0.00  0.00    -0.361 OA
ATOM     27  H8  UNK A          34.518  24.896   9.053  0.00  0.00     0.217 HD
ENDBRANCH  10  26
TORSDOF 6
ENDMDL
MODEL 18
REMARK VINA RESULT:      -5.3      4.175      5.717
REMARK  6 active torsions:
REMARK  status: ('A' for Active; 'I' for Inactive)
REMARK    1  A    between atoms: O2_2  and  C5_12 
REMARK    2  A    between atoms: O3_3  and  C7_14 
REMARK    3  A    between atoms: O5_5  and  C9_16 
REMARK    4  A    between atoms: O6_6  and  C13_20 
REMARK    5  A    between atoms: O7_7  and  C15_22 
REMARK    6  A    between atoms: C3_10  and  C4_11 
ROOT
ATOM      1  O1  UNK A          40.716  22.509  11.180  0.00  0.00    -0.306 OA
ATOM      2  O4  UNK A          40.832  18.529  12.051  0.00  0.00    -0.284 OA
ATOM      3  C1  UNK A          42.010  20.468  11.405  0.00  0.00     0.084 A 
ATOM      4  C2  UNK A          41.903  21.827  11.118  0.00  0.00     0.096 A 
ATOM      5  C3  UNK A          39.575  21.818  11.557  0.00  0.00     0.123 A 
ATOM      6  C5  UNK A          39.541  20.505  11.852  0.00  0.00     0.152 A 
ATOM      7  C6  UNK A          40.801  19.725  11.793  0.00  0.00     0.223 A 
ATOM      8  C7  UNK A          43.247  19.825  11.323  0.00  0.00     0.085 A 
ATOM      9  C8  UNK A          43.035  22.553  10.745  0.00  0.00     0.075 A 
ATOM     10  C9  UNK A          44.273  21.914  10.663  0.00  0.00     0.071 A 
ATOM     11  C11 UNK A          44.378  20.553  10.951  0.00  0.00     0.074 A 
ENDROOT
BRANCH   5  12
ATOM     12  C4  UNK A          38.371  22.666  11.584  0.00  0.00     0.004 A 
ATOM     13  C10 UNK A          38.205  23.613  12.595  0.00  0.00     0.053 A 
ATOM     14  C13 UNK A          37.066  24.417  12.620  0.00  0.00     0.099 A 
ATOM     15  C15 UNK A          36.090  24.273  11.633  0.00  0.00     0.098 A 
ATOM     16  C14 UNK A          36.254  23.326  10.622  0.00  0.00     0.040 A 
ATOM     17  C12 UNK A          37.395  22.523  10.597  0.00  0.00     0.017 A 
BRANCH  14  18
ATOM     18  O6  UNK A          36.915  25.337  13.612  0.00  0.00    -0.358 OA
ATOM     19  H9  UNK A          37.319  25.006  14.431  0.00  0.00     0.217 HD
ENDBRANCH  14  18
BRANCH  15  20
ATOM     20  O7  UNK A          34.973  25.053  11.646  0.00  0.00    -0.358 OA
ATOM     21  H10 UNK A          34.459  24.902  10.837  0.00  0.00     0.217 HD
ENDBRANCH  15  20
ENDBRANCH   5  12
BRANCH   6  22
ATOM     22  O2  UNK A          38.383  19.840  12.192  0.00  0.00    -0.355 OA
ATOM     23  H6  UNK A          38.571  18.896  12.324  0.00  0.00     0.218 HD
ENDBRANCH   6  22
BRANCH   8  24
ATOM     24  O3  UNK A          43.406  18.499  11.593  0.00  0.00    -0.360 OA
ATOM     25  H7  UNK A          44.126  18.127  11.061  0.00  0.00     0.217 HD
ENDBRANCH   8  24
BRANCH  10  26
ATOM     26  O5  UNK A          45.378  22.620  10.300  0.00  0.00    -0.361 OA
ATOM     27  H8  UNK A          46.099  22.420  10.922  0.00  0.00     0.217 HD
ENDBRANCH  10  26
TORSDOF 6
ENDMDL
MODEL 19
REMARK VINA RESULT:      -5.2      2.702      4.713
REMARK  6 active torsions:
REMARK  status: ('A' for Active; 'I' for Inactive)
REMARK    1  A    between atoms: O2_2  and  C5_12 
REMARK    2  A    between atoms: O3_3  and  C7_14 
REMARK    3  A    between atoms: O5_5  and  C9_16 
REMARK    4  A    between atoms: O6_6  and  C13_20 
REMARK    5  A    between atoms: O7_7  and  C15_22 
REMARK    6  A    between atoms: C3_10  and  C4_11 
ROOT
ATOM      1  O1  UNK A          41.970  21.207  10.687  0.00  0.00    -0.306 OA
ATOM      2  O4  UNK A          41.125  18.720  13.802  0.00  0.00    -0.284 OA
ATOM      3  C1  UNK A          40.315  20.165  12.124  0.00  0.00     0.084 A 
ATOM      4  C2  UNK A          40.670  21.003  11.069  0.00  0.00     0.096 A 
ATOM      5  C3  UNK A          42.974  20.540  11.371  0.00  0.00     0.123 A 
ATOM      6  C5  UNK A          42.766  19.711  12.411  0.00  0.00     0.152 A 
ATOM      7  C6  UNK A          41.376  19.464  12.864  0.00  0.00     0.223 A 
ATOM      8  C7  UNK A          38.972  19.997  12.470  0.00  0.00     0.085 A 
ATOM      9  C8  UNK A          39.682  21.681  10.354  0.00  0.00     0.075 A 
ATOM     10  C9  UNK A          38.339  21.516  10.696  0.00  0.00     0.071 A 
ATOM     11  C11 UNK A          37.986  20.675  11.753  0.00  0.00     0.074 A 
ENDROOT
BRANCH   5  12
ATOM     12  C4  UNK A          44.321  20.846  10.860  0.00  0.00     0.004 A 
ATOM     13  C10 UNK A          44.958  22.029  11.236  0.00  0.00     0.053 A 
ATOM     14  C13 UNK A          46.234  22.318  10.753  0.00  0.00     0.099 A 
ATOM     15  C15 UNK A          46.873  21.425   9.892  0.00  0.00     0.098 A 
ATOM     16  C14 UNK A          46.236  20.242   9.516  0.00  0.00     0.040 A 
ATOM     17  C12 UNK A          44.960  19.953  10.000  0.00  0.00     0.017 A 
BRANCH  14  18
ATOM     18  O6  UNK A          46.846  23.477  11.125  0.00  0.00    -0.358 OA
ATOM     19  H9  UNK A          46.486  23.779  11.975  0.00  0.00     0.217 HD
ENDBRANCH  14  18
BRANCH  15  20
ATOM     20  O7  UNK A          48.120  21.696   9.414  0.00  0.00    -0.358 OA
ATOM     21  H10 UNK A          48.082  21.823   8.453  0.00  0.00     0.217 HD
ENDBRANCH  15  20
ENDBRANCH   5  12
BRANCH   6  22
ATOM     22  O2  UNK A          43.789  19.088  13.092  0.00  0.00    -0.355 OA
ATOM     23  H6  UNK A          43.438  18.640  13.879  0.00  0.00     0.218 HD
ENDBRANCH   6  22
BRANCH   8  24
ATOM     24  O3  UNK A          38.572  19.190  13.493  0.00  0.00    -0.360 OA
ATOM     25  H7  UNK A          37.637  18.956  13.395  0.00  0.00     0.217 HD
ENDBRANCH   8  24
BRANCH  10  26
ATOM     26  O5  UNK A          37.375  22.175  10.000  0.00  0.00    -0.361 OA
ATOM     27  H8  UNK A          37.705  23.058   9.760  0.00  0.00     0.217 HD
ENDBRANCH  10  26
TORSDOF 6
ENDMDL
