MODEL 1
REMARK VINA RESULT:      -7.5      0.000      0.000
REMARK  6 active torsions:
REMARK  status: ('A' for Active; 'I' for Inactive)
REMARK    1  A    between atoms: O2_2  and  C5_12 
REMARK    2  A    between atoms: O3_3  and  C7_14 
REMARK    3  A    between atoms: O5_5  and  C9_16 
REMARK    4  A    between atoms: O6_6  and  C13_20 
REMARK    5  A    between atoms: O7_7  and  C15_22 
REMARK    6  A    between atoms: C3_10  and  C4_11 
ROOT
ATOM      1  O1  UNK A          39.621  15.123   0.031  0.00  0.00    -0.306 OA
ATOM      2  O4  UNK A          41.756  15.731  -3.386  0.00  0.00    -0.284 OA
ATOM      3  C1  UNK A          40.199  16.572  -1.827  0.00  0.00     0.084 A 
ATOM      4  C2  UNK A          39.496  16.303  -0.654  0.00  0.00     0.096 A 
ATOM      5  C3  UNK A          40.493  14.162  -0.456  0.00  0.00     0.123 A 
ATOM      6  C5  UNK A          41.222  14.294  -1.579  0.00  0.00     0.152 A 
ATOM      7  C6  UNK A          41.116  15.552  -2.358  0.00  0.00     0.223 A 
ATOM      8  C7  UNK A          40.031  17.793  -2.485  0.00  0.00     0.085 A 
ATOM      9  C8  UNK A          38.618  17.254  -0.133  0.00  0.00     0.075 A 
ATOM     10  C9  UNK A          38.448  18.474  -0.787  0.00  0.00     0.071 A 
ATOM     11  C11 UNK A          39.153  18.742  -1.961  0.00  0.00     0.074 A 
ENDROOT
BRANCH   5  12
ATOM     12  C4  UNK A          40.532  12.946   0.374  0.00  0.00     0.004 A 
ATOM     13  C10 UNK A          40.431  13.043   1.762  0.00  0.00     0.053 A 
ATOM     14  C13 UNK A          40.466  11.892   2.547  0.00  0.00     0.099 A 
ATOM     15  C15 UNK A          40.605  10.641   1.945  0.00  0.00     0.098 A 
ATOM     16  C14 UNK A          40.706  10.543   0.557  0.00  0.00     0.040 A 
ATOM     17  C12 UNK A          40.670  11.695  -0.228  0.00  0.00     0.017 A 
BRANCH  14  18
ATOM     18  O6  UNK A          40.368  12.000   3.901  0.00  0.00    -0.358 OA
ATOM     19  H9  UNK A          41.204  11.727   4.314  0.00  0.00     0.217 HD
ENDBRANCH  14  18
BRANCH  15  20
ATOM     20  O7  UNK A          40.639   9.508   2.701  0.00  0.00    -0.358 OA
ATOM     21  H10 UNK A          40.611   9.742   3.642  0.00  0.00     0.217 HD
ENDBRANCH  15  20
ENDBRANCH   5  12
BRANCH   6  22
ATOM     22  O2  UNK A          42.057  13.306  -2.055  0.00  0.00    -0.355 OA
ATOM     23  H6  UNK A          42.922  13.366  -1.619  0.00  0.00     0.218 HD
ENDBRANCH   6  22
BRANCH   8  24
ATOM     24  O3  UNK A          40.693  18.106  -3.634  0.00  0.00    -0.360 OA
ATOM     25  H7  UNK A          40.524  19.027  -3.885  0.00  0.00     0.217 HD
ENDBRANCH   8  24
BRANCH  10  26
ATOM     26  O5  UNK A          37.593  19.402  -0.280  0.00  0.00    -0.361 OA
ATOM     27  H8  UNK A          36.761  19.375  -0.784  0.00  0.00     0.217 HD
ENDBRANCH  10  26
TORSDOF 6
ENDMDL
MODEL 2
REMARK VINA RESULT:      -7.2      1.212      6.452
REMARK  6 active torsions:
REMARK  status: ('A' for Active; 'I' for Inactive)
REMARK    1  A    between atoms: O2_2  and  C5_12 
REMARK    2  A    between atoms: O3_3  and  C7_14 
REMARK    3  A    between atoms: O5_5  and  C9_16 
REMARK    4  A    between atoms: O6_6  and  C13_20 
REMARK    5  A    between atoms: O7_7  and  C15_22 
REMARK    6  A    between atoms: C3_10  and  C4_11 
ROOT
ATOM      1  O1  UNK A          39.783  14.319   0.181  0.00  0.00    -0.306 OA
ATOM      2  O4  UNK A          42.366  12.555  -2.431  0.00  0.00    -0.284 OA
ATOM      3  C1  UNK A          41.005  12.342  -0.517  0.00  0.00     0.084 A 
ATOM      4  C2  UNK A          40.128  13.003   0.341  0.00  0.00     0.096 A 
ATOM      5  C3  UNK A          40.318  15.019  -0.890  0.00  0.00     0.123 A 
ATOM      6  C5  UNK A          41.180  14.501  -1.784  0.00  0.00     0.152 A 
ATOM      7  C6  UNK A          41.587  13.082  -1.647  0.00  0.00     0.223 A 
ATOM      8  C7  UNK A          41.322  10.998  -0.303  0.00  0.00     0.085 A 
ATOM      9  C8  UNK A          39.565  12.324   1.422  0.00  0.00     0.075 A 
ATOM     10  C9  UNK A          39.879  10.982   1.639  0.00  0.00     0.071 A 
ATOM     11  C11 UNK A          40.756  10.321   0.778  0.00  0.00     0.074 A 
ENDROOT
BRANCH   5  12
ATOM     12  C4  UNK A          39.866  16.420  -0.946  0.00  0.00     0.004 A 
ATOM     13  C10 UNK A          39.080  16.942   0.082  0.00  0.00     0.053 A 
ATOM     14  C13 UNK A          38.653  18.268   0.028  0.00  0.00     0.099 A 
ATOM     15  C15 UNK A          39.010  19.073  -1.054  0.00  0.00     0.098 A 
ATOM     16  C14 UNK A          39.795  18.551  -2.082  0.00  0.00     0.040 A 
ATOM     17  C12 UNK A          40.223  17.225  -2.028  0.00  0.00     0.017 A 
BRANCH  14  18
ATOM     18  O6  UNK A          37.885  18.767   1.037  0.00  0.00    -0.358 OA
ATOM     19  H9  UNK A          38.374  18.722   1.875  0.00  0.00     0.217 HD
ENDBRANCH  14  18
BRANCH  15  20
ATOM     20  O7  UNK A          38.600  20.371  -1.117  0.00  0.00    -0.358 OA
ATOM     21  H10 UNK A          37.890  20.522  -0.472  0.00  0.00     0.217 HD
ENDBRANCH  15  20
ENDBRANCH   5  12
BRANCH   6  22
ATOM     22  O2  UNK A          41.721  15.233  -2.819  0.00  0.00    -0.355 OA
ATOM     23  H6  UNK A          42.687  15.138  -2.821  0.00  0.00     0.218 HD
ENDBRANCH   6  22
BRANCH   8  24
ATOM     24  O3  UNK A          42.172  10.306  -1.112  0.00  0.00    -0.360 OA
ATOM     25  H7  UNK A          41.686   9.887  -1.838  0.00  0.00     0.217 HD
ENDBRANCH   8  24
BRANCH  10  26
ATOM     26  O5  UNK A          39.330  10.317   2.692  0.00  0.00    -0.361 OA
ATOM     27  H8  UNK A          40.014  10.178   3.369  0.00  0.00     0.217 HD
ENDBRANCH  10  26
TORSDOF 6
ENDMDL
MODEL 3
REMARK VINA RESULT:      -7.0      2.081      3.087
REMARK  6 active torsions:
REMARK  status: ('A' for Active; 'I' for Inactive)
REMARK    1  A    between atoms: O2_2  and  C5_12 
REMARK    2  A    between atoms: O3_3  and  C7_14 
REMARK    3  A    between atoms: O5_5  and  C9_16 
REMARK    4  A    between atoms: O6_6  and  C13_20 
REMARK    5  A    between atoms: O7_7  and  C15_22 
REMARK    6  A    between atoms: C3_10  and  C4_11 
ROOT
ATOM      1  O1  UNK A          39.293  17.444  -0.151  0.00  0.00    -0.306 OA
ATOM      2  O4  UNK A          40.618  18.974  -3.688  0.00  0.00    -0.284 OA
ATOM      3  C1  UNK A          39.794  19.387  -1.517  0.00  0.00     0.084 A 
ATOM      4  C2  UNK A          39.350  18.801  -0.333  0.00  0.00     0.096 A 
ATOM      5  C3  UNK A          39.708  16.620  -1.185  0.00  0.00     0.123 A 
ATOM      6  C5  UNK A          40.149  17.057  -2.379  0.00  0.00     0.152 A 
ATOM      7  C6  UNK A          40.223  18.517  -2.623  0.00  0.00     0.223 A 
ATOM      8  C7  UNK A          39.830  20.777  -1.646  0.00  0.00     0.085 A 
ATOM      9  C8  UNK A          38.936  19.605   0.730  0.00  0.00     0.075 A 
ATOM     10  C9  UNK A          38.970  20.994   0.605  0.00  0.00     0.071 A 
ATOM     11  C11 UNK A          39.416  21.578  -0.582  0.00  0.00     0.074 A 
ENDROOT
BRANCH   5  12
ATOM     12  C4  UNK A          39.596  15.187  -0.859  0.00  0.00     0.004 A 
ATOM     13  C10 UNK A          40.642  14.535  -0.205  0.00  0.00     0.053 A 
ATOM     14  C13 UNK A          40.535  13.180   0.104  0.00  0.00     0.099 A 
ATOM     15  C15 UNK A          39.381  12.475  -0.241  0.00  0.00     0.098 A 
ATOM     16  C14 UNK A          38.335  13.126  -0.895  0.00  0.00     0.040 A 
ATOM     17  C12 UNK A          38.442  14.482  -1.204  0.00  0.00     0.017 A 
BRANCH  14  18
ATOM     18  O6  UNK A          41.563  12.554   0.741  0.00  0.00    -0.358 OA
ATOM     19  H9  UNK A          41.803  11.745   0.261  0.00  0.00     0.217 HD
ENDBRANCH  14  18
BRANCH  15  20
ATOM     20  O7  UNK A          39.265  11.151   0.057  0.00  0.00    -0.358 OA
ATOM     21  H10 UNK A          39.634  10.980   0.938  0.00  0.00     0.217 HD
ENDBRANCH  15  20
ENDBRANCH   5  12
BRANCH   6  22
ATOM     22  O2  UNK A          40.523  16.209  -3.399  0.00  0.00    -0.355 OA
ATOM     23  H6  UNK A          40.388  16.645  -4.257  0.00  0.00     0.218 HD
ENDBRANCH   6  22
BRANCH   8  24
ATOM     24  O3  UNK A          40.255  21.399  -2.782  0.00  0.00    -0.360 OA
ATOM     25  H7  UNK A          40.175  22.361  -2.693  0.00  0.00     0.217 HD
ENDBRANCH   8  24
BRANCH  10  26
ATOM     26  O5  UNK A          38.567  21.779   1.640  0.00  0.00    -0.361 OA
ATOM     27  H8  UNK A          38.483  22.697   1.327  0.00  0.00     0.217 HD
ENDBRANCH  10  26
TORSDOF 6
ENDMDL
MODEL 4
REMARK VINA RESULT:      -6.8      1.479      2.348
REMARK  6 active torsions:
REMARK  status: ('A' for Active; 'I' for Inactive)
REMARK    1  A    between atoms: O2_2  and  C5_12 
REMARK    2  A    between atoms: O3_3  and  C7_14 
REMARK    3  A    between atoms: O5_5  and  C9_16 
REMARK    4  A    between atoms: O6_6  and  C13_20 
REMARK    5  A    between atoms: O7_7  and  C15_22 
REMARK    6  A    between atoms: C3_10  and  C4_11 
ROOT
ATOM      1  O1  UNK A          39.521  15.986  -0.052  0.00  0.00    -0.306 OA
ATOM      2  O4  UNK A          40.881  17.726  -3.477  0.00  0.00    -0.284 OA
ATOM      3  C1  UNK A          39.716  17.967  -1.440  0.00  0.00     0.084 A 
ATOM      4  C2  UNK A          39.278  17.313  -0.290  0.00  0.00     0.096 A 
ATOM      5  C3  UNK A          40.246  15.267  -0.989  0.00  0.00     0.123 A 
ATOM      6  C5  UNK A          40.718  15.775  -2.142  0.00  0.00     0.152 A 
ATOM      7  C6  UNK A          40.474  17.206  -2.445  0.00  0.00     0.223 A 
ATOM      8  C7  UNK A          39.437  19.322  -1.631  0.00  0.00     0.085 A 
ATOM      9  C8  UNK A          38.554  18.013   0.677  0.00  0.00     0.075 A 
ATOM     10  C9  UNK A          38.274  19.366   0.490  0.00  0.00     0.071 A 
ATOM     11  C11 UNK A          38.714  20.019  -0.662  0.00  0.00     0.074 A 
ENDROOT
BRANCH   5  12
ATOM     12  C4  UNK A          40.436  13.856  -0.610  0.00  0.00     0.004 A 
ATOM     13  C10 UNK A          41.070  12.976  -1.488  0.00  0.00     0.053 A 
ATOM     14  C13 UNK A          41.251  11.641  -1.128  0.00  0.00     0.099 A 
ATOM     15  C15 UNK A          40.796  11.184   0.109  0.00  0.00     0.098 A 
ATOM     16  C14 UNK A          40.162  12.063   0.987  0.00  0.00     0.040 A 
ATOM     17  C12 UNK A          39.982  13.399   0.628  0.00  0.00     0.017 A 
BRANCH  14  18
ATOM     18  O6  UNK A          41.870  10.791  -1.994  0.00  0.00    -0.358 OA
ATOM     19  H9  UNK A          41.836   9.885  -1.645  0.00  0.00     0.217 HD
ENDBRANCH  14  18
BRANCH  15  20
ATOM     20  O7  UNK A          40.968   9.882   0.473  0.00  0.00    -0.358 OA
ATOM     21  H10 UNK A          41.126   9.340  -0.316  0.00  0.00     0.217 HD
ENDBRANCH  15  20
ENDBRANCH   5  12
BRANCH   6  22
ATOM     22  O2  UNK A          41.408  15.025  -3.069  0.00  0.00    -0.355 OA
ATOM     23  H6  UNK A          42.044  14.446  -2.618  0.00  0.00     0.218 HD
ENDBRANCH   6  22
BRANCH   8  24
ATOM     24  O3  UNK A          39.843  20.008  -2.737  0.00  0.00    -0.360 OA
ATOM     25  H7  UNK A          39.750  20.962  -2.598  0.00  0.00     0.217 HD
ENDBRANCH   8  24
BRANCH  10  26
ATOM     26  O5  UNK A          37.569  20.050   1.431  0.00  0.00    -0.361 OA
ATOM     27  H8  UNK A          36.848  19.485   1.759  0.00  0.00     0.217 HD
ENDBRANCH  10  26
TORSDOF 6
ENDMDL
MODEL 5
REMARK VINA RESULT:      -6.5      1.153      6.655
REMARK  6 active torsions:
REMARK  status: ('A' for Active; 'I' for Inactive)
REMARK    1  A    between atoms: O2_2  and  C5_12 
REMARK    2  A    between atoms: O3_3  and  C7_14 
REMARK    3  A    between atoms: O5_5  and  C9_16 
REMARK    4  A    between atoms: O6_6  and  C13_20 
REMARK    5  A    between atoms: O7_7  and  C15_22 
REMARK    6  A    between atoms: C3_10  and  C4_11 
ROOT
ATOM      1  O1  UNK A          39.780  14.260   0.317  0.00  0.00    -0.306 OA
ATOM      2  O4  UNK A          42.324  12.468  -2.314  0.00  0.00    -0.284 OA
ATOM      3  C1  UNK A          40.983  12.273  -0.385  0.00  0.00     0.084 A 
ATOM      4  C2  UNK A          40.120  12.943   0.480  0.00  0.00     0.096 A 
ATOM      5  C3  UNK A          40.307  14.951  -0.763  0.00  0.00     0.123 A 
ATOM      6  C5  UNK A          41.156  14.424  -1.665  0.00  0.00     0.152 A 
ATOM      7  C6  UNK A          41.557  13.003  -1.525  0.00  0.00     0.223 A 
ATOM      8  C7  UNK A          41.295  10.928  -0.167  0.00  0.00     0.085 A 
ATOM      9  C8  UNK A          39.565  12.272   1.571  0.00  0.00     0.075 A 
ATOM     10  C9  UNK A          39.874  10.930   1.791  0.00  0.00     0.071 A 
ATOM     11  C11 UNK A          40.738  10.260   0.923  0.00  0.00     0.074 A 
ENDROOT
BRANCH   5  12
ATOM     12  C4  UNK A          39.862  16.354  -0.822  0.00  0.00     0.004 A 
ATOM     13  C10 UNK A          40.225  17.158  -1.903  0.00  0.00     0.053 A 
ATOM     14  C13 UNK A          39.802  18.486  -1.958  0.00  0.00     0.099 A 
ATOM     15  C15 UNK A          39.017  19.011  -0.932  0.00  0.00     0.098 A 
ATOM     16  C14 UNK A          38.654  18.208   0.149  0.00  0.00     0.040 A 
ATOM     17  C12 UNK A          39.076  16.880   0.205  0.00  0.00     0.017 A 
BRANCH  14  18
ATOM     18  O6  UNK A          40.163  19.261  -3.018  0.00  0.00    -0.358 OA
ATOM     19  H9  UNK A          40.191  20.194  -2.748  0.00  0.00     0.217 HD
ENDBRANCH  14  18
BRANCH  15  20
ATOM     20  O7  UNK A          38.596  20.306  -0.975  0.00  0.00    -0.358 OA
ATOM     21  H10 UNK A          37.705  20.375  -0.598  0.00  0.00     0.217 HD
ENDBRANCH  15  20
ENDBRANCH   5  12
BRANCH   6  22
ATOM     22  O2  UNK A          41.689  15.148  -2.709  0.00  0.00    -0.355 OA
ATOM     23  H6  UNK A          42.565  14.798  -2.941  0.00  0.00     0.218 HD
ENDBRANCH   6  22
BRANCH   8  24
ATOM     24  O3  UNK A          42.132  10.227  -0.982  0.00  0.00    -0.360 OA
ATOM     25  H7  UNK A          42.471  10.795  -1.691  0.00  0.00     0.217 HD
ENDBRANCH   8  24
BRANCH  10  26
ATOM     26  O5  UNK A          39.333  10.274   2.853  0.00  0.00    -0.361 OA
ATOM     27  H8  UNK A          39.970   9.612   3.173  0.00  0.00     0.217 HD
ENDBRANCH  10  26
TORSDOF 6
ENDMDL
MODEL 6
REMARK VINA RESULT:      -6.3      2.711      7.348
REMARK  6 active torsions:
REMARK  status: ('A' for Active; 'I' for Inactive)
REMARK    1  A    between atoms: O2_2  and  C5_12 
REMARK    2  A    between atoms: O3_3  and  C7_14 
REMARK    3  A    between atoms: O5_5  and  C9_16 
REMARK    4  A    between atoms: O6_6  and  C13_20 
REMARK    5  A    between atoms: O7_7  and  C15_22 
REMARK    6  A    between atoms: C3_10  and  C4_11 
ROOT
ATOM      1  O1  UNK A          40.552  17.041  -1.349  0.00  0.00    -0.306 OA
ATOM      2  O4  UNK A          36.995  15.163  -0.691  0.00  0.00    -0.284 OA
ATOM      3  C1  UNK A          39.291  14.972  -1.194  0.00  0.00     0.084 A 
ATOM      4  C2  UNK A          40.476  15.674  -1.410  0.00  0.00     0.096 A 
ATOM      5  C3  UNK A          39.403  17.754  -1.046  0.00  0.00     0.123 A 
ATOM      6  C5  UNK A          38.197  17.200  -0.824  0.00  0.00     0.152 A 
ATOM      7  C6  UNK A          38.066  15.724  -0.885  0.00  0.00     0.223 A 
ATOM      8  C7  UNK A          39.274  13.577  -1.271  0.00  0.00     0.085 A 
ATOM      9  C8  UNK A          41.652  14.983  -1.708  0.00  0.00     0.075 A 
ATOM     10  C9  UNK A          41.638  13.590  -1.785  0.00  0.00     0.071 A 
ATOM     11  C11 UNK A          40.451  12.890  -1.567  0.00  0.00     0.074 A 
ENDROOT
BRANCH   5  12
ATOM     12  C4  UNK A          39.623  19.211  -1.011  0.00  0.00     0.004 A 
ATOM     13  C10 UNK A          39.231  19.950   0.105  0.00  0.00     0.053 A 
ATOM     14  C13 UNK A          39.440  21.328   0.138  0.00  0.00     0.099 A 
ATOM     15  C15 UNK A          40.040  21.969  -0.947  0.00  0.00     0.098 A 
ATOM     16  C14 UNK A          40.432  21.230  -2.064  0.00  0.00     0.040 A 
ATOM     17  C12 UNK A          40.223  19.851  -2.096  0.00  0.00     0.017 A 
BRANCH  14  18
ATOM     18  O6  UNK A          39.053  22.040   1.232  0.00  0.00    -0.358 OA
ATOM     19  H9  UNK A          39.779  22.074   1.876  0.00  0.00     0.217 HD
ENDBRANCH  14  18
BRANCH  15  20
ATOM     20  O7  UNK A          40.251  23.315  -0.926  0.00  0.00    -0.358 OA
ATOM     21  H10 UNK A          39.802  23.728  -1.680  0.00  0.00     0.217 HD
ENDBRANCH  15  20
ENDBRANCH   5  12
BRANCH   6  22
ATOM     22  O2  UNK A          37.066  17.940  -0.557  0.00  0.00    -0.355 OA
ATOM     23  H6  UNK A          36.937  18.013   0.403  0.00  0.00     0.218 HD
ENDBRANCH   6  22
BRANCH   8  24
ATOM     24  O3  UNK A          38.143  12.845  -1.069  0.00  0.00    -0.360 OA
ATOM     25  H7  UNK A          38.102  12.529  -0.153  0.00  0.00     0.217 HD
ENDBRANCH   8  24
BRANCH  10  26
ATOM     26  O5  UNK A          42.783  12.915  -2.074  0.00  0.00    -0.361 OA
ATOM     27  H8  UNK A          42.553  12.027  -2.400  0.00  0.00     0.217 HD
ENDBRANCH  10  26
TORSDOF 6
ENDMDL
MODEL 7
REMARK VINA RESULT:      -6.3     10.149     11.898
REMARK  6 active torsions:
REMARK  status: ('A' for Active; 'I' for Inactive)
REMARK    1  A    between atoms: O2_2  and  C5_12 
REMARK    2  A    between atoms: O3_3  and  C7_14 
REMARK    3  A    between atoms: O5_5  and  C9_16 
REMARK    4  A    between atoms: O6_6  and  C13_20 
REMARK    5  A    between atoms: O7_7  and  C15_22 
REMARK    6  A    between atoms: C3_10  and  C4_11 
ROOT
ATOM      1  O1  UNK A          46.198  11.235  -7.903  0.00  0.00    -0.306 OA
ATOM      2  O4  UNK A          47.873   7.688  -9.007  0.00  0.00    -0.284 OA
ATOM      3  C1  UNK A          45.973   9.084  -9.005  0.00  0.00     0.084 A 
ATOM      4  C2  UNK A          45.459  10.314  -8.598  0.00  0.00     0.096 A 
ATOM      5  C3  UNK A          47.518  10.935  -7.604  0.00  0.00     0.123 A 
ATOM      6  C5  UNK A          48.131   9.783  -7.931  0.00  0.00     0.152 A 
ATOM      7  C6  UNK A          47.369   8.754  -8.680  0.00  0.00     0.223 A 
ATOM      8  C7  UNK A          45.172   8.184  -9.711  0.00  0.00     0.085 A 
ATOM      9  C8  UNK A          44.137  10.649  -8.893  0.00  0.00     0.075 A 
ATOM     10  C9  UNK A          43.333   9.752  -9.598  0.00  0.00     0.071 A 
ATOM     11  C11 UNK A          43.851   8.522 -10.006  0.00  0.00     0.074 A 
ENDROOT
BRANCH   5  12
ATOM     12  C4  UNK A          48.196  12.008  -6.856  0.00  0.00     0.004 A 
ATOM     13  C10 UNK A          48.097  12.061  -5.465  0.00  0.00     0.053 A 
ATOM     14  C13 UNK A          48.740  13.076  -4.758  0.00  0.00     0.099 A 
ATOM     15  C15 UNK A          49.482  14.040  -5.441  0.00  0.00     0.098 A 
ATOM     16  C14 UNK A          49.582  13.987  -6.831  0.00  0.00     0.040 A 
ATOM     17  C12 UNK A          48.939  12.971  -7.539  0.00  0.00     0.017 A 
BRANCH  14  18
ATOM     18  O6  UNK A          48.635  13.118  -3.401  0.00  0.00    -0.358 OA
ATOM     19  H9  UNK A          49.391  12.661  -2.998  0.00  0.00     0.217 HD
ENDBRANCH  14  18
BRANCH  15  20
ATOM     20  O7  UNK A          50.117  15.035  -4.761  0.00  0.00    -0.358 OA
ATOM     21  H10 UNK A          49.782  15.897  -5.054  0.00  0.00     0.217 HD
ENDBRANCH  15  20
ENDBRANCH   5  12
BRANCH   6  22
ATOM     22  O2  UNK A          49.436   9.501  -7.590  0.00  0.00    -0.355 OA
ATOM     23  H6  UNK A          49.913  10.326  -7.402  0.00  0.00     0.218 HD
ENDBRANCH   6  22
BRANCH   8  24
ATOM     24  O3  UNK A          45.626   6.970 -10.132  0.00  0.00    -0.360 OA
ATOM     25  H7  UNK A          44.890   6.346 -10.229  0.00  0.00     0.217 HD
ENDBRANCH   8  24
BRANCH  10  26
ATOM     26  O5  UNK A          42.045  10.077  -9.887  0.00  0.00    -0.361 OA
ATOM     27  H8  UNK A          42.030  10.638 -10.682  0.00  0.00     0.217 HD
ENDBRANCH  10  26
TORSDOF 6
ENDMDL
MODEL 8
REMARK VINA RESULT:      -6.2      1.321      6.625
REMARK  6 active torsions:
REMARK  status: ('A' for Active; 'I' for Inactive)
REMARK    1  A    between atoms: O2_2  and  C5_12 
REMARK    2  A    between atoms: O3_3  and  C7_14 
REMARK    3  A    between atoms: O5_5  and  C9_16 
REMARK    4  A    between atoms: O6_6  and  C13_20 
REMARK    5  A    between atoms: O7_7  and  C15_22 
REMARK    6  A    between atoms: C3_10  and  C4_11 
ROOT
ATOM      1  O1  UNK A          40.225  13.959   0.925  0.00  0.00    -0.306 OA
ATOM      2  O4  UNK A          41.603  10.462  -0.650  0.00  0.00    -0.284 OA
ATOM      3  C1  UNK A          40.790  11.620   1.237  0.00  0.00     0.084 A 
ATOM      4  C2  UNK A          40.327  12.844   1.715  0.00  0.00     0.096 A 
ATOM      5  C3  UNK A          40.584  13.860  -0.410  0.00  0.00     0.123 A 
ATOM      6  C5  UNK A          41.052  12.741  -0.993  0.00  0.00     0.152 A 
ATOM      7  C6  UNK A          41.185  11.511  -0.175  0.00  0.00     0.223 A 
ATOM      8  C7  UNK A          40.874  10.517   2.090  0.00  0.00     0.085 A 
ATOM      9  C8  UNK A          39.949  12.974   3.052  0.00  0.00     0.075 A 
ATOM     10  C9  UNK A          40.031  11.874   3.907  0.00  0.00     0.071 A 
ATOM     11  C11 UNK A          40.494  10.648   3.426  0.00  0.00     0.074 A 
ENDROOT
BRANCH   5  12
ATOM     12  C4  UNK A          40.426  15.127  -1.145  0.00  0.00     0.004 A 
ATOM     13  C10 UNK A          39.858  16.235  -0.514  0.00  0.00     0.053 A 
ATOM     14  C13 UNK A          39.710  17.434  -1.208  0.00  0.00     0.099 A 
ATOM     15  C15 UNK A          40.128  17.527  -2.537  0.00  0.00     0.098 A 
ATOM     16  C14 UNK A          40.695  16.420  -3.168  0.00  0.00     0.040 A 
ATOM     17  C12 UNK A          40.845  15.220  -2.473  0.00  0.00     0.017 A 
BRANCH  14  18
ATOM     18  O6  UNK A          39.153  18.508  -0.582  0.00  0.00    -0.358 OA
ATOM     19  H9  UNK A          39.413  19.325  -1.039  0.00  0.00     0.217 HD
ENDBRANCH  14  18
BRANCH  15  20
ATOM     20  O7  UNK A          39.989  18.694  -3.226  0.00  0.00    -0.358 OA
ATOM     21  H10 UNK A          40.219  18.553  -4.158  0.00  0.00     0.217 HD
ENDBRANCH  15  20
ENDBRANCH   5  12
BRANCH   6  22
ATOM     22  O2  UNK A          41.432  12.683  -2.316  0.00  0.00    -0.355 OA
ATOM     23  H6  UNK A          41.615  13.578  -2.646  0.00  0.00     0.218 HD
ENDBRANCH   6  22
BRANCH   8  24
ATOM     24  O3  UNK A          41.319   9.298   1.674  0.00  0.00    -0.360 OA
ATOM     25  H7  UNK A          41.804   8.851   2.384  0.00  0.00     0.217 HD
ENDBRANCH   8  24
BRANCH  10  26
ATOM     26  O5  UNK A          39.662  11.998   5.210  0.00  0.00    -0.361 OA
ATOM     27  H8  UNK A          39.114  11.233   5.457  0.00  0.00     0.217 HD
ENDBRANCH  10  26
TORSDOF 6
ENDMDL
MODEL 9
REMARK VINA RESULT:      -5.8      9.869     11.909
REMARK  6 active torsions:
REMARK  status: ('A' for Active; 'I' for Inactive)
REMARK    1  A    between atoms: O2_2  and  C5_12 
REMARK    2  A    between atoms: O3_3  and  C7_14 
REMARK    3  A    between atoms: O5_5  and  C9_16 
REMARK    4  A    between atoms: O6_6  and  C13_20 
REMARK    5  A    between atoms: O7_7  and  C15_22 
REMARK    6  A    between atoms: C3_10  and  C4_11 
ROOT
ATOM      1  O1  UNK A          45.902  11.138  -7.939  0.00  0.00    -0.306 OA
ATOM      2  O4  UNK A          47.741   7.714  -9.166  0.00  0.00    -0.284 OA
ATOM      3  C1  UNK A          45.832   9.096  -9.250  0.00  0.00     0.084 A 
ATOM      4  C2  UNK A          45.258  10.281  -8.793  0.00  0.00     0.096 A 
ATOM      5  C3  UNK A          47.185  10.817  -7.523  0.00  0.00     0.123 A 
ATOM      6  C5  UNK A          47.847   9.703  -7.884  0.00  0.00     0.152 A 
ATOM      7  C6  UNK A          47.188   8.744  -8.802  0.00  0.00     0.223 A 
ATOM      8  C7  UNK A          45.126   8.260 -10.119  0.00  0.00     0.085 A 
ATOM      9  C8  UNK A          43.971  10.636  -9.202  0.00  0.00     0.075 A 
ATOM     10  C9  UNK A          43.264   9.804 -10.070  0.00  0.00     0.071 A 
ATOM     11  C11 UNK A          43.841   8.618 -10.527  0.00  0.00     0.074 A 
ENDROOT
BRANCH   5  12
ATOM     12  C4  UNK A          47.761  11.820  -6.611  0.00  0.00     0.004 A 
ATOM     13  C10 UNK A          48.682  12.753  -7.089  0.00  0.00     0.053 A 
ATOM     14  C13 UNK A          49.226  13.703  -6.225  0.00  0.00     0.099 A 
ATOM     15  C15 UNK A          48.850  13.720  -4.881  0.00  0.00     0.098 A 
ATOM     16  C14 UNK A          47.930  12.788  -4.403  0.00  0.00     0.040 A 
ATOM     17  C12 UNK A          47.385  11.838  -5.267  0.00  0.00     0.017 A 
BRANCH  14  18
ATOM     18  O6  UNK A          50.125  14.607  -6.703  0.00  0.00    -0.358 OA
ATOM     19  H9  UNK A          49.725  15.492  -6.716  0.00  0.00     0.217 HD
ENDBRANCH  14  18
BRANCH  15  20
ATOM     20  O7  UNK A          49.374  14.644  -4.028  0.00  0.00    -0.358 OA
ATOM     21  H10 UNK A          49.436  14.268  -3.136  0.00  0.00     0.217 HD
ENDBRANCH  15  20
ENDBRANCH   5  12
BRANCH   6  22
ATOM     22  O2  UNK A          49.111   9.397  -7.426  0.00  0.00    -0.355 OA
ATOM     23  H6  UNK A          49.229   9.744  -6.526  0.00  0.00     0.218 HD
ENDBRANCH   6  22
BRANCH   8  24
ATOM     24  O3  UNK A          45.642   7.092 -10.595  0.00  0.00    -0.360 OA
ATOM     25  H7  UNK A          45.845   7.169 -11.539  0.00  0.00     0.217 HD
ENDBRANCH   8  24
BRANCH  10  26
ATOM     26  O5  UNK A          42.010  10.148 -10.470  0.00  0.00    -0.361 OA
ATOM     27  H8  UNK A          42.000  10.232 -11.439  0.00  0.00     0.217 HD
ENDBRANCH  10  26
TORSDOF 6
ENDMDL
MODEL 10
REMARK VINA RESULT:      -5.8     10.181     13.051
REMARK  6 active torsions:
REMARK  status: ('A' for Active; 'I' for Inactive)
REMARK    1  A    between atoms: O2_2  and  C5_12 
REMARK    2  A    between atoms: O3_3  and  C7_14 
REMARK    3  A    between atoms: O5_5  and  C9_16 
REMARK    4  A    between atoms: O6_6  and  C13_20 
REMARK    5  A    between atoms: O7_7  and  C15_22 
REMARK    6  A    between atoms: C3_10  and  C4_11 
ROOT
ATOM      1  O1  UNK A          48.663   9.490  -7.034  0.00  0.00    -0.306 OA
ATOM      2  O4  UNK A          45.923   9.529 -10.051  0.00  0.00    -0.284 OA
ATOM      3  C1  UNK A          47.605   8.347  -8.896  0.00  0.00     0.084 A 
ATOM      4  C2  UNK A          48.523   8.397  -7.848  0.00  0.00     0.096 A 
ATOM      5  C3  UNK A          47.846  10.588  -7.254  0.00  0.00     0.123 A 
ATOM      6  C5  UNK A          46.927  10.671  -8.234  0.00  0.00     0.152 A 
ATOM      7  C6  UNK A          46.744   9.514  -9.143  0.00  0.00     0.223 A 
ATOM      8  C7  UNK A          47.509   7.205  -9.695  0.00  0.00     0.085 A 
ATOM      9  C8  UNK A          49.353   7.304  -7.596  0.00  0.00     0.075 A 
ATOM     10  C9  UNK A          49.259   6.162  -8.391  0.00  0.00     0.071 A 
ATOM     11  C11 UNK A          48.338   6.114  -9.439  0.00  0.00     0.074 A 
ENDROOT
BRANCH   5  12
ATOM     12  C4  UNK A          48.097  11.691  -6.310  0.00  0.00     0.004 A 
ATOM     13  C10 UNK A          48.945  12.739  -6.670  0.00  0.00     0.053 A 
ATOM     14  C13 UNK A          49.182  13.783  -5.777  0.00  0.00     0.099 A 
ATOM     15  C15 UNK A          48.573  13.779  -4.522  0.00  0.00     0.098 A 
ATOM     16  C14 UNK A          47.726  12.731  -4.161  0.00  0.00     0.040 A 
ATOM     17  C12 UNK A          47.488  11.687  -5.055  0.00  0.00     0.017 A 
BRANCH  14  18
ATOM     18  O6  UNK A          50.012  14.801  -6.139  0.00  0.00    -0.358 OA
ATOM     19  H9  UNK A          50.794  14.806  -5.565  0.00  0.00     0.217 HD
ENDBRANCH  14  18
BRANCH  15  20
ATOM     20  O7  UNK A          48.795  14.795  -3.641  0.00  0.00    -0.358 OA
ATOM     21  H10 UNK A          47.970  15.018  -3.183  0.00  0.00     0.217 HD
ENDBRANCH  15  20
ENDBRANCH   5  12
BRANCH   6  22
ATOM     22  O2  UNK A          46.152  11.790  -8.447  0.00  0.00    -0.355 OA
ATOM     23  H6  UNK A          46.716  12.580  -8.485  0.00  0.00     0.218 HD
ENDBRANCH   6  22
BRANCH   8  24
ATOM     24  O3  UNK A          46.628   7.105 -10.730  0.00  0.00    -0.360 OA
ATOM     25  H7  UNK A          46.231   7.968 -10.923  0.00  0.00     0.217 HD
ENDBRANCH   8  24
BRANCH  10  26
ATOM     26  O5  UNK A          50.067   5.095  -8.146  0.00  0.00    -0.361 OA
ATOM     27  H8  UNK A          50.357   4.717  -8.994  0.00  0.00     0.217 HD
ENDBRANCH  10  26
TORSDOF 6
ENDMDL
MODEL 11
REMARK VINA RESULT:      -5.5     10.013     11.389
REMARK  6 active torsions:
REMARK  status: ('A' for Active; 'I' for Inactive)
REMARK    1  A    between atoms: O2_2  and  C5_12 
REMARK    2  A    between atoms: O3_3  and  C7_14 
REMARK    3  A    between atoms: O5_5  and  C9_16 
REMARK    4  A    between atoms: O6_6  and  C13_20 
REMARK    5  A    between atoms: O7_7  and  C15_22 
REMARK    6  A    between atoms: C3_10  and  C4_11 
ROOT
ATOM      1  O1  UNK A          46.772  11.486  -7.343  0.00  0.00    -0.306 OA
ATOM      2  O4  UNK A          48.399   8.724  -9.861  0.00  0.00    -0.284 OA
ATOM      3  C1  UNK A          46.708  10.321  -9.472  0.00  0.00     0.084 A 
ATOM      4  C2  UNK A          46.200  11.250  -8.566  0.00  0.00     0.096 A 
ATOM      5  C3  UNK A          47.913  10.778  -6.999  0.00  0.00     0.123 A 
ATOM      6  C5  UNK A          48.498   9.849  -7.778  0.00  0.00     0.152 A 
ATOM      7  C6  UNK A          47.910   9.557  -9.108  0.00  0.00     0.223 A 
ATOM      8  C7  UNK A          46.080  10.123 -10.704  0.00  0.00     0.085 A 
ATOM      9  C8  UNK A          45.058  11.986  -8.887  0.00  0.00     0.075 A 
ATOM     10  C9  UNK A          44.429  11.790 -10.117  0.00  0.00     0.071 A 
ATOM     11  C11 UNK A          44.940  10.860 -11.023  0.00  0.00     0.074 A 
ENDROOT
BRANCH   5  12
ATOM     12  C4  UNK A          48.426  11.126  -5.663  0.00  0.00     0.004 A 
ATOM     13  C10 UNK A          48.369  12.446  -5.215  0.00  0.00     0.053 A 
ATOM     14  C13 UNK A          48.853  12.775  -3.949  0.00  0.00     0.099 A 
ATOM     15  C15 UNK A          49.395  11.783  -3.131  0.00  0.00     0.098 A 
ATOM     16  C14 UNK A          49.452  10.464  -3.578  0.00  0.00     0.040 A 
ATOM     17  C12 UNK A          48.968  10.134  -4.844  0.00  0.00     0.017 A 
BRANCH  14  18
ATOM     18  O6  UNK A          48.794  14.067  -3.523  0.00  0.00    -0.358 OA
ATOM     19  H9  UNK A          49.453  14.599  -3.997  0.00  0.00     0.217 HD
ENDBRANCH  14  18
BRANCH  15  20
ATOM     20  O7  UNK A          49.870  12.092  -1.891  0.00  0.00    -0.358 OA
ATOM     21  H10 UNK A          49.916  11.290  -1.349  0.00  0.00     0.217 HD
ENDBRANCH  15  20
ENDBRANCH   5  12
BRANCH   6  22
ATOM     22  O2  UNK A          49.614   9.138  -7.393  0.00  0.00    -0.355 OA
ATOM     23  H6  UNK A          49.347   8.341  -6.907  0.00  0.00     0.218 HD
ENDBRANCH   6  22
BRANCH   8  24
ATOM     24  O3  UNK A          46.536   9.227 -11.625  0.00  0.00    -0.360 OA
ATOM     25  H7  UNK A          46.332   9.529 -12.523  0.00  0.00     0.217 HD
ENDBRANCH   8  24
BRANCH  10  26
ATOM     26  O5  UNK A          43.316  12.507 -10.432  0.00  0.00    -0.361 OA
ATOM     27  H8  UNK A          43.584  13.400 -10.710  0.00  0.00     0.217 HD
ENDBRANCH  10  26
TORSDOF 6
ENDMDL
MODEL 12
REMARK VINA RESULT:      -5.5      9.887     12.621
REMARK  6 active torsions:
REMARK  status: ('A' for Active; 'I' for Inactive)
REMARK    1  A    between atoms: O2_2  and  C5_12 
REMARK    2  A    between atoms: O3_3  and  C7_14 
REMARK    3  A    between atoms: O5_5  and  C9_16 
REMARK    4  A    between atoms: O6_6  and  C13_20 
REMARK    5  A    between atoms: O7_7  and  C15_22 
REMARK    6  A    between atoms: C3_10  and  C4_11 
ROOT
ATOM      1  O1  UNK A          47.806   9.690  -8.087  0.00  0.00    -0.306 OA
ATOM      2  O4  UNK A          44.140  10.210  -9.788  0.00  0.00    -0.284 OA
ATOM      3  C1  UNK A          46.029   8.830  -9.499  0.00  0.00     0.084 A 
ATOM      4  C2  UNK A          47.277   8.713  -8.889  0.00  0.00     0.096 A 
ATOM      5  C3  UNK A          47.061  10.837  -7.862  0.00  0.00     0.123 A 
ATOM      6  C5  UNK A          45.849  11.077  -8.396  0.00  0.00     0.152 A 
ATOM      7  C6  UNK A          45.240  10.050  -9.275  0.00  0.00     0.223 A 
ATOM      8  C7  UNK A          45.542   7.801 -10.308  0.00  0.00     0.085 A 
ATOM      9  C8  UNK A          48.046   7.566  -9.088  0.00  0.00     0.075 A 
ATOM     10  C9  UNK A          47.563   6.536  -9.895  0.00  0.00     0.071 A 
ATOM     11  C11 UNK A          46.312   6.655 -10.504  0.00  0.00     0.074 A 
ENDROOT
BRANCH   5  12
ATOM     12  C4  UNK A          47.744  11.803  -6.984  0.00  0.00     0.004 A 
ATOM     13  C10 UNK A          47.528  11.769  -5.606  0.00  0.00     0.053 A 
ATOM     14  C13 UNK A          48.175  12.683  -4.775  0.00  0.00     0.099 A 
ATOM     15  C15 UNK A          49.038  13.633  -5.322  0.00  0.00     0.098 A 
ATOM     16  C14 UNK A          49.254  13.668  -6.699  0.00  0.00     0.040 A 
ATOM     17  C12 UNK A          48.607  12.753  -7.530  0.00  0.00     0.017 A 
BRANCH  14  18
ATOM     18  O6  UNK A          47.955  12.641  -3.432  0.00  0.00    -0.358 OA
ATOM     19  H9  UNK A          47.218  13.230  -3.201  0.00  0.00     0.217 HD
ENDBRANCH  14  18
BRANCH  15  20
ATOM     20  O7  UNK A          49.677  14.530  -4.520  0.00  0.00    -0.358 OA
ATOM     21  H10 UNK A          49.024  15.049  -4.024  0.00  0.00     0.217 HD
ENDBRANCH  15  20
ENDBRANCH   5  12
BRANCH   6  22
ATOM     22  O2  UNK A          45.148  12.243  -8.179  0.00  0.00    -0.355 OA
ATOM     23  H6  UNK A          44.903  12.644  -9.029  0.00  0.00     0.218 HD
ENDBRANCH   6  22
BRANCH   8  24
ATOM     24  O3  UNK A          44.329   7.865 -10.927  0.00  0.00    -0.360 OA
ATOM     25  H7  UNK A          44.398   7.559 -11.844  0.00  0.00     0.217 HD
ENDBRANCH   8  24
BRANCH  10  26
ATOM     26  O5  UNK A          48.310   5.417 -10.090  0.00  0.00    -0.361 OA
ATOM     27  H8  UNK A          47.901   4.676  -9.612  0.00  0.00     0.217 HD
ENDBRANCH  10  26
TORSDOF 6
ENDMDL
MODEL 13
REMARK VINA RESULT:      -5.1      9.921     11.019
REMARK  6 active torsions:
REMARK  status: ('A' for Active; 'I' for Inactive)
REMARK    1  A    between atoms: O2_2  and  C5_12 
REMARK    2  A    between atoms: O3_3  and  C7_14 
REMARK    3  A    between atoms: O5_5  and  C9_16 
REMARK    4  A    between atoms: O6_6  and  C13_20 
REMARK    5  A    between atoms: O7_7  and  C15_22 
REMARK    6  A    between atoms: C3_10  and  C4_11 
ROOT
ATOM      1  O1  UNK A          46.650  11.305  -6.809  0.00  0.00    -0.306 OA
ATOM      2  O4  UNK A          48.744  12.407 -10.128  0.00  0.00    -0.284 OA
ATOM      3  C1  UNK A          46.723  11.602  -9.217  0.00  0.00     0.084 A 
ATOM      4  C2  UNK A          46.062  11.239  -8.045  0.00  0.00     0.096 A 
ATOM      5  C3  UNK A          47.954  11.766  -6.721  0.00  0.00     0.123 A 
ATOM      6  C5  UNK A          48.704  12.140  -7.774  0.00  0.00     0.152 A 
ATOM      7  C6  UNK A          48.111  12.079  -9.132  0.00  0.00     0.223 A 
ATOM      8  C7  UNK A          46.072  11.511 -10.450  0.00  0.00     0.085 A 
ATOM      9  C8  UNK A          44.745  10.780  -8.100  0.00  0.00     0.075 A 
ATOM     10  C9  UNK A          44.092  10.689  -9.330  0.00  0.00     0.071 A 
ATOM     11  C11 UNK A          44.756  11.054 -10.502  0.00  0.00     0.074 A 
ENDROOT
BRANCH   5  12
ATOM     12  C4  UNK A          48.464  11.788  -5.339  0.00  0.00     0.004 A 
ATOM     13  C10 UNK A          49.061  10.650  -4.796  0.00  0.00     0.053 A 
ATOM     14  C13 UNK A          49.545  10.672  -3.489  0.00  0.00     0.099 A 
ATOM     15  C15 UNK A          49.431  11.832  -2.722  0.00  0.00     0.098 A 
ATOM     16  C14 UNK A          48.834  12.970  -3.264  0.00  0.00     0.040 A 
ATOM     17  C12 UNK A          48.351  12.949  -4.573  0.00  0.00     0.017 A 
BRANCH  14  18
ATOM     18  O6  UNK A          50.124   9.554  -2.969  0.00  0.00    -0.358 OA
ATOM     19  H9  UNK A          50.104   9.595  -1.999  0.00  0.00     0.217 HD
ENDBRANCH  14  18
BRANCH  15  20
ATOM     20  O7  UNK A          49.901  11.866  -1.444  0.00  0.00    -0.358 OA
ATOM     21  H10 UNK A          49.305  11.368  -0.862  0.00  0.00     0.217 HD
ENDBRANCH  15  20
ENDBRANCH   5  12
BRANCH   6  22
ATOM     22  O2  UNK A          50.010  12.563  -7.656  0.00  0.00    -0.355 OA
ATOM     23  H6  UNK A          50.210  12.763  -6.727  0.00  0.00     0.218 HD
ENDBRANCH   6  22
BRANCH   8  24
ATOM     24  O3  UNK A          46.673  11.854 -11.625  0.00  0.00    -0.360 OA
ATOM     25  H7  UNK A          47.599  12.096 -11.475  0.00  0.00     0.217 HD
ENDBRANCH   8  24
BRANCH  10  26
ATOM     26  O5  UNK A          42.808  10.243  -9.386  0.00  0.00    -0.361 OA
ATOM     27  H8  UNK A          42.508  10.259 -10.311  0.00  0.00     0.217 HD
ENDBRANCH  10  26
TORSDOF 6
ENDMDL
MODEL 14
REMARK VINA RESULT:      -5.1     10.709     12.293
REMARK  6 active torsions:
REMARK  status: ('A' for Active; 'I' for Inactive)
REMARK    1  A    between atoms: O2_2  and  C5_12 
REMARK    2  A    between atoms: O3_3  and  C7_14 
REMARK    3  A    between atoms: O5_5  and  C9_16 
REMARK    4  A    between atoms: O6_6  and  C13_20 
REMARK    5  A    between atoms: O7_7  and  C15_22 
REMARK    6  A    between atoms: C3_10  and  C4_11 
ROOT
ATOM      1  O1  UNK A          45.441  10.844  -8.605  0.00  0.00    -0.306 OA
ATOM      2  O4  UNK A          47.926   7.628  -8.906  0.00  0.00    -0.284 OA
ATOM      3  C1  UNK A          47.562   9.798  -8.058  0.00  0.00     0.084 A 
ATOM      4  C2  UNK A          46.668  10.865  -7.994  0.00  0.00     0.096 A 
ATOM      5  C3  UNK A          45.070   9.707  -9.305  0.00  0.00     0.123 A 
ATOM      6  C5  UNK A          45.842   8.614  -9.450  0.00  0.00     0.152 A 
ATOM      7  C6  UNK A          47.180   8.594  -8.811  0.00  0.00     0.223 A 
ATOM      8  C7  UNK A          48.800   9.877  -7.416  0.00  0.00     0.085 A 
ATOM      9  C8  UNK A          47.008  12.020  -7.288  0.00  0.00     0.075 A 
ATOM     10  C9  UNK A          48.244  12.102  -6.645  0.00  0.00     0.071 A 
ATOM     11  C11 UNK A          49.138  11.032  -6.710  0.00  0.00     0.074 A 
ENDROOT
BRANCH   5  12
ATOM     12  C4  UNK A          43.731   9.816  -9.911  0.00  0.00     0.004 A 
ATOM     13  C10 UNK A          42.676   9.049  -9.416  0.00  0.00     0.053 A 
ATOM     14  C13 UNK A          41.409   9.153  -9.988  0.00  0.00     0.099 A 
ATOM     15  C15 UNK A          41.197  10.023 -11.058  0.00  0.00     0.098 A 
ATOM     16  C14 UNK A          42.251  10.790 -11.553  0.00  0.00     0.040 A 
ATOM     17  C12 UNK A          43.519  10.686 -10.980  0.00  0.00     0.017 A 
BRANCH  14  18
ATOM     18  O6  UNK A          40.387   8.399  -9.498  0.00  0.00    -0.358 OA
ATOM     19  H9  UNK A          39.549   8.880  -9.593  0.00  0.00     0.217 HD
ENDBRANCH  14  18
BRANCH  15  20
ATOM     20  O7  UNK A          39.963  10.135 -11.625  0.00  0.00    -0.358 OA
ATOM     21  H10 UNK A          39.618  11.031 -11.485  0.00  0.00     0.217 HD
ENDBRANCH  15  20
ENDBRANCH   5  12
BRANCH   6  22
ATOM     22  O2  UNK A          45.457   7.512 -10.181  0.00  0.00    -0.355 OA
ATOM     23  H6  UNK A          44.495   7.393 -10.118  0.00  0.00     0.218 HD
ENDBRANCH   6  22
BRANCH   8  24
ATOM     24  O3  UNK A          49.710   8.863  -7.448  0.00  0.00    -0.360 OA
ATOM     25  H7  UNK A          50.613   9.214  -7.417  0.00  0.00     0.217 HD
ENDBRANCH   8  24
BRANCH  10  26
ATOM     26  O5  UNK A          48.578  13.226  -5.956  0.00  0.00    -0.361 OA
ATOM     27  H8  UNK A          48.441  14.000  -6.529  0.00  0.00     0.217 HD
ENDBRANCH  10  26
TORSDOF 6
ENDMDL
MODEL 15
REMARK VINA RESULT:      -5.1      9.776     11.725
REMARK  6 active torsions:
REMARK  status: ('A' for Active; 'I' for Inactive)
REMARK    1  A    between atoms: O2_2  and  C5_12 
REMARK    2  A    between atoms: O3_3  and  C7_14 
REMARK    3  A    between atoms: O5_5  and  C9_16 
REMARK    4  A    between atoms: O6_6  and  C13_20 
REMARK    5  A    between atoms: O7_7  and  C15_22 
REMARK    6  A    between atoms: C3_10  and  C4_11 
ROOT
ATOM      1  O1  UNK A          46.198  10.802  -7.654  0.00  0.00    -0.306 OA
ATOM      2  O4  UNK A          49.017  12.491 -10.064  0.00  0.00    -0.284 OA
ATOM      3  C1  UNK A          48.165  12.204  -7.884  0.00  0.00     0.084 A 
ATOM      4  C2  UNK A          47.173  11.599  -7.114  0.00  0.00     0.096 A 
ATOM      5  C3  UNK A          46.207  10.578  -9.022  0.00  0.00     0.123 A 
ATOM      6  C5  UNK A          47.103  11.108  -9.875  0.00  0.00     0.152 A 
ATOM      7  C6  UNK A          48.173  11.982  -9.338  0.00  0.00     0.223 A 
ATOM      8  C7  UNK A          49.134  13.009  -7.279  0.00  0.00     0.085 A 
ATOM      9  C8  UNK A          47.143  11.798  -5.733  0.00  0.00     0.075 A 
ATOM     10  C9  UNK A          48.109  12.600  -5.126  0.00  0.00     0.071 A 
ATOM     11  C11 UNK A          49.102  13.204  -5.898  0.00  0.00     0.074 A 
ENDROOT
BRANCH   5  12
ATOM     12  C4  UNK A          45.108   9.705  -9.469  0.00  0.00     0.004 A 
ATOM     13  C10 UNK A          43.784  10.127  -9.340  0.00  0.00     0.053 A 
ATOM     14  C13 UNK A          42.744   9.301  -9.765  0.00  0.00     0.099 A 
ATOM     15  C15 UNK A          43.027   8.052 -10.318  0.00  0.00     0.098 A 
ATOM     16  C14 UNK A          44.350   7.630 -10.448  0.00  0.00     0.040 A 
ATOM     17  C12 UNK A          45.391   8.456 -10.024  0.00  0.00     0.017 A 
BRANCH  14  18
ATOM     18  O6  UNK A          41.456   9.723  -9.632  0.00  0.00    -0.358 OA
ATOM     19  H9  UNK A          41.363  10.616 -10.001  0.00  0.00     0.217 HD
ENDBRANCH  14  18
BRANCH  15  20
ATOM     20  O7  UNK A          42.019   7.237 -10.738  0.00  0.00    -0.358 OA
ATOM     21  H10 UNK A          41.351   7.759 -11.211  0.00  0.00     0.217 HD
ENDBRANCH  15  20
ENDBRANCH   5  12
BRANCH   6  22
ATOM     22  O2  UNK A          47.065  10.892 -11.236  0.00  0.00    -0.355 OA
ATOM     23  H6  UNK A          47.969  10.856 -11.589  0.00  0.00     0.218 HD
ENDBRANCH   6  22
BRANCH   8  24
ATOM     24  O3  UNK A          50.125  13.623  -7.985  0.00  0.00    -0.360 OA
ATOM     25  H7  UNK A          50.562  12.992  -8.577  0.00  0.00     0.217 HD
ENDBRANCH   8  24
BRANCH  10  26
ATOM     26  O5  UNK A          48.082  12.794  -3.780  0.00  0.00    -0.361 OA
ATOM     27  H8  UNK A          48.664  13.541  -3.556  0.00  0.00     0.217 HD
ENDBRANCH  10  26
TORSDOF 6
ENDMDL
MODEL 16
REMARK VINA RESULT:      -5.1     10.148     12.863
REMARK  6 active torsions:
REMARK  status: ('A' for Active; 'I' for Inactive)
REMARK    1  A    between atoms: O2_2  and  C5_12 
REMARK    2  A    between atoms: O3_3  and  C7_14 
REMARK    3  A    between atoms: O5_5  and  C9_16 
REMARK    4  A    between atoms: O6_6  and  C13_20 
REMARK    5  A    between atoms: O7_7  and  C15_22 
REMARK    6  A    between atoms: C3_10  and  C4_11 
ROOT
ATOM      1  O1  UNK A          46.746   9.209  -9.180  0.00  0.00    -0.306 OA
ATOM      2  O4  UNK A          42.716   9.748  -9.454  0.00  0.00    -0.284 OA
ATOM      3  C1  UNK A          44.582   8.374  -9.893  0.00  0.00     0.084 A 
ATOM      4  C2  UNK A          45.964   8.251  -9.769  0.00  0.00     0.096 A 
ATOM      5  C3  UNK A          46.132  10.344  -8.673  0.00  0.00     0.123 A 
ATOM      6  C5  UNK A          44.811  10.589  -8.735  0.00  0.00     0.152 A 
ATOM      7  C6  UNK A          43.926   9.582  -9.369  0.00  0.00     0.223 A 
ATOM      8  C7  UNK A          43.836   7.364 -10.506  0.00  0.00     0.085 A 
ATOM      9  C8  UNK A          46.610   7.115 -10.261  0.00  0.00     0.075 A 
ATOM     10  C9  UNK A          45.868   6.105 -10.873  0.00  0.00     0.071 A 
ATOM     11  C11 UNK A          44.483   6.230 -10.995  0.00  0.00     0.074 A 
ENDROOT
BRANCH   5  12
ATOM     12  C4  UNK A          47.085  11.291  -8.067  0.00  0.00     0.004 A 
ATOM     13  C10 UNK A          46.975  11.625  -6.716  0.00  0.00     0.053 A 
ATOM     14  C13 UNK A          47.877  12.520  -6.143  0.00  0.00     0.099 A 
ATOM     15  C15 UNK A          48.889  13.083  -6.920  0.00  0.00     0.098 A 
ATOM     16  C14 UNK A          49.000  12.750  -8.270  0.00  0.00     0.040 A 
ATOM     17  C12 UNK A          48.098  11.854  -8.843  0.00  0.00     0.017 A 
BRANCH  14  18
ATOM     18  O6  UNK A          47.759  12.839  -4.824  0.00  0.00    -0.358 OA
ATOM     19  H9  UNK A          46.824  12.985  -4.604  0.00  0.00     0.217 HD
ENDBRANCH  14  18
BRANCH  15  20
ATOM     20  O7  UNK A          49.778  13.958  -6.371  0.00  0.00    -0.358 OA
ATOM     21  H10 UNK A          50.470  13.469  -5.899  0.00  0.00     0.217 HD
ENDBRANCH  15  20
ENDBRANCH   5  12
BRANCH   6  22
ATOM     22  O2  UNK A          44.235  11.743  -8.250  0.00  0.00    -0.355 OA
ATOM     23  H6  UNK A          43.268  11.676  -8.300  0.00  0.00     0.218 HD
ENDBRANCH   6  22
BRANCH   8  24
ATOM     24  O3  UNK A          42.483   7.436 -10.651  0.00  0.00    -0.360 OA
ATOM     25  H7  UNK A          42.038   6.929  -9.955  0.00  0.00     0.217 HD
ENDBRANCH   8  24
BRANCH  10  26
ATOM     26  O5  UNK A          46.495   4.997 -11.352  0.00  0.00    -0.361 OA
ATOM     27  H8  UNK A          47.367   5.253 -11.701  0.00  0.00     0.217 HD
ENDBRANCH  10  26
TORSDOF 6
ENDMDL
