MODEL 1
REMARK VINA RESULT:      -6.1      0.000      0.000
REMARK  6 active torsions:
REMARK  status: ('A' for Active; 'I' for Inactive)
REMARK    1  A    between atoms: O2_2  and  C5_12 
REMARK    2  A    between atoms: O3_3  and  C7_14 
REMARK    3  A    between atoms: O5_5  and  C9_16 
REMARK    4  A    between atoms: O6_6  and  C13_20 
REMARK    5  A    between atoms: O7_7  and  C15_22 
REMARK    6  A    between atoms: C3_10  and  C4_11 
ROOT
ATOM      1  O1  UNK A          42.524  21.260  11.961  0.00  0.00    -0.306 OA
ATOM      2  O4  UNK A          45.944  19.112  11.414  0.00  0.00    -0.284 OA
ATOM      3  C1  UNK A          43.647  19.109  11.947  0.00  0.00     0.084 A 
ATOM      4  C2  UNK A          42.513  19.899  12.121  0.00  0.00     0.096 A 
ATOM      5  C3  UNK A          43.713  21.874  11.598  0.00  0.00     0.123 A 
ATOM      6  C5  UNK A          44.878  21.228  11.408  0.00  0.00     0.152 A 
ATOM      7  C6  UNK A          44.915  19.755  11.575  0.00  0.00     0.223 A 
ATOM      8  C7  UNK A          43.576  17.725  12.126  0.00  0.00     0.085 A 
ATOM      9  C8  UNK A          41.299  19.310  12.476  0.00  0.00     0.075 A 
ATOM     10  C9  UNK A          41.224  17.928  12.655  0.00  0.00     0.071 A 
ATOM     11  C11 UNK A          42.361  17.138  12.480  0.00  0.00     0.074 A 
ENDROOT
BRANCH   5  12
ATOM     12  C4  UNK A          43.587  23.335  11.459  0.00  0.00     0.004 A 
ATOM     13  C10 UNK A          43.743  23.935  10.209  0.00  0.00     0.053 A 
ATOM     14  C13 UNK A          43.622  25.317  10.077  0.00  0.00     0.099 A 
ATOM     15  C15 UNK A          43.348  26.103  11.197  0.00  0.00     0.098 A 
ATOM     16  C14 UNK A          43.192  25.504  12.448  0.00  0.00     0.040 A 
ATOM     17  C12 UNK A          43.312  24.121  12.579  0.00  0.00     0.017 A 
BRANCH  14  18
ATOM     18  O6  UNK A          43.778  25.891   8.852  0.00  0.00    -0.358 OA
ATOM     19  H9  UNK A          42.907  26.072   8.461  0.00  0.00     0.217 HD
ENDBRANCH  14  18
BRANCH  15  20
ATOM     20  O7  UNK A          43.226  27.455  11.082  0.00  0.00    -0.358 OA
ATOM     21  H10 UNK A          43.524  27.736  10.202  0.00  0.00     0.217 HD
ENDBRANCH  15  20
ENDBRANCH   5  12
BRANCH   6  22
ATOM     22  O2  UNK A          46.051  21.872  11.079  0.00  0.00    -0.355 OA
ATOM     23  H6  UNK A          46.319  21.631  10.177  0.00  0.00     0.218 HD
ENDBRANCH   6  22
BRANCH   8  24
ATOM     24  O3  UNK A          44.654  16.907  11.968  0.00  0.00    -0.360 OA
ATOM     25  H7  UNK A          44.710  16.589  11.054  0.00  0.00     0.217 HD
ENDBRANCH   8  24
BRANCH  10  26
ATOM     26  O5  UNK A          40.041  17.352  13.001  0.00  0.00    -0.361 OA
ATOM     27  H8  UNK A          40.205  16.680  13.685  0.00  0.00     0.217 HD
ENDBRANCH  10  26
TORSDOF 6
ENDMDL
MODEL 2
REMARK VINA RESULT:      -6.0      1.277      2.858
REMARK  6 active torsions:
REMARK  status: ('A' for Active; 'I' for Inactive)
REMARK    1  A    between atoms: O2_2  and  C5_12 
REMARK    2  A    between atoms: O3_3  and  C7_14 
REMARK    3  A    between atoms: O5_5  and  C9_16 
REMARK    4  A    between atoms: O6_6  and  C13_20 
REMARK    5  A    between atoms: O7_7  and  C15_22 
REMARK    6  A    between atoms: C3_10  and  C4_11 
ROOT
ATOM      1  O1  UNK A          44.337  21.270  11.768  0.00  0.00    -0.306 OA
ATOM      2  O4  UNK A          41.000  18.954  11.431  0.00  0.00    -0.284 OA
ATOM      3  C1  UNK A          43.326  19.064  11.803  0.00  0.00     0.084 A 
ATOM      4  C2  UNK A          44.429  19.910  11.906  0.00  0.00     0.096 A 
ATOM      5  C3  UNK A          43.091  21.828  11.529  0.00  0.00     0.123 A 
ATOM      6  C5  UNK A          41.951  21.124  11.400  0.00  0.00     0.152 A 
ATOM      7  C6  UNK A          42.003  19.648  11.536  0.00  0.00     0.223 A 
ATOM      8  C7  UNK A          43.481  17.683  11.952  0.00  0.00     0.085 A 
ATOM      9  C8  UNK A          45.695  19.379  12.157  0.00  0.00     0.075 A 
ATOM     10  C9  UNK A          45.853  18.001  12.306  0.00  0.00     0.071 A 
ATOM     11  C11 UNK A          44.747  17.155  12.204  0.00  0.00     0.074 A 
ENDROOT
BRANCH   5  12
ATOM     12  C4  UNK A          43.132  23.296  11.402  0.00  0.00     0.004 A 
ATOM     13  C10 UNK A          43.484  23.882  10.185  0.00  0.00     0.053 A 
ATOM     14  C13 UNK A          43.522  25.271  10.065  0.00  0.00     0.099 A 
ATOM     15  C15 UNK A          43.210  26.074  11.163  0.00  0.00     0.098 A 
ATOM     16  C14 UNK A          42.859  25.489  12.379  0.00  0.00     0.040 A 
ATOM     17  C12 UNK A          42.820  24.099  12.499  0.00  0.00     0.017 A 
BRANCH  14  18
ATOM     18  O6  UNK A          43.867  25.832   8.874  0.00  0.00    -0.358 OA
ATOM     19  H9  UNK A          44.775  25.577   8.642  0.00  0.00     0.217 HD
ENDBRANCH  14  18
BRANCH  15  20
ATOM     20  O7  UNK A          43.242  27.432  11.057  0.00  0.00    -0.358 OA
ATOM     21  H10 UNK A          43.828  27.690  10.328  0.00  0.00     0.217 HD
ENDBRANCH  15  20
ENDBRANCH   5  12
BRANCH   6  22
ATOM     22  O2  UNK A          40.732  21.707  11.129  0.00  0.00    -0.355 OA
ATOM     23  H6  UNK A          40.391  21.379  10.281  0.00  0.00     0.218 HD
ENDBRANCH   6  22
BRANCH   8  24
ATOM     24  O3  UNK A          42.436  16.813  11.861  0.00  0.00    -0.360 OA
ATOM     25  H7  UNK A          41.939  16.962  11.042  0.00  0.00     0.217 HD
ENDBRANCH   8  24
BRANCH  10  26
ATOM     26  O5  UNK A          47.086  17.481  12.551  0.00  0.00    -0.361 OA
ATOM     27  H8  UNK A          46.984  16.598  12.946  0.00  0.00     0.217 HD
ENDBRANCH  10  26
TORSDOF 6
ENDMDL
MODEL 3
REMARK VINA RESULT:      -5.9      4.961      6.353
REMARK  6 active torsions:
REMARK  status: ('A' for Active; 'I' for Inactive)
REMARK    1  A    between atoms: O2_2  and  C5_12 
REMARK    2  A    between atoms: O3_3  and  C7_14 
REMARK    3  A    between atoms: O5_5  and  C9_16 
REMARK    4  A    between atoms: O6_6  and  C13_20 
REMARK    5  A    between atoms: O7_7  and  C15_22 
REMARK    6  A    between atoms: C3_10  and  C4_11 
ROOT
ATOM      1  O1  UNK A          38.949  22.052  11.034  0.00  0.00    -0.306 OA
ATOM      2  O4  UNK A          37.815  19.562  14.055  0.00  0.00    -0.284 OA
ATOM      3  C1  UNK A          39.389  20.078  12.376  0.00  0.00     0.084 A 
ATOM      4  C2  UNK A          39.720  20.966  11.354  0.00  0.00     0.096 A 
ATOM      5  C3  UNK A          37.795  22.284  11.768  0.00  0.00     0.123 A 
ATOM      6  C5  UNK A          37.360  21.500  12.772  0.00  0.00     0.152 A 
ATOM      7  C6  UNK A          38.160  20.311  13.149  0.00  0.00     0.223 A 
ATOM      8  C7  UNK A          40.214  18.986  12.656  0.00  0.00     0.085 A 
ATOM      9  C8  UNK A          40.880  20.765  10.604  0.00  0.00     0.075 A 
ATOM     10  C9  UNK A          41.707  19.677  10.881  0.00  0.00     0.071 A 
ATOM     11  C11 UNK A          41.373  18.789  11.905  0.00  0.00     0.074 A 
ENDROOT
BRANCH   5  12
ATOM     12  C4  UNK A          37.061  23.481  11.323  0.00  0.00     0.004 A 
ATOM     13  C10 UNK A          37.365  24.730  11.866  0.00  0.00     0.053 A 
ATOM     14  C13 UNK A          36.670  25.862  11.443  0.00  0.00     0.099 A 
ATOM     15  C15 UNK A          35.670  25.747  10.477  0.00  0.00     0.098 A 
ATOM     16  C14 UNK A          35.365  24.499   9.934  0.00  0.00     0.040 A 
ATOM     17  C12 UNK A          36.061  23.366  10.356  0.00  0.00     0.017 A 
BRANCH  14  18
ATOM     18  O6  UNK A          36.975  27.076  11.981  0.00  0.00    -0.358 OA
ATOM     19  H9  UNK A          37.861  27.350  11.694  0.00  0.00     0.217 HD
ENDBRANCH  14  18
BRANCH  15  20
ATOM     20  O7  UNK A          34.985  26.847  10.055  0.00  0.00    -0.358 OA
ATOM     21  H10 UNK A          35.107  26.962   9.100  0.00  0.00     0.217 HD
ENDBRANCH  15  20
ENDBRANCH   5  12
BRANCH   6  22
ATOM     22  O2  UNK A          36.191  21.740  13.460  0.00  0.00    -0.355 OA
ATOM     23  H6  UNK A          35.581  22.256  12.907  0.00  0.00     0.218 HD
ENDBRANCH   6  22
BRANCH   8  24
ATOM     24  O3  UNK A          39.936  18.089  13.643  0.00  0.00    -0.360 OA
ATOM     25  H7  UNK A          39.036  17.743  13.545  0.00  0.00     0.217 HD
ENDBRANCH   8  24
BRANCH  10  26
ATOM     26  O5  UNK A          42.838  19.479  10.152  0.00  0.00    -0.361 OA
ATOM     27  H8  UNK A          43.007  20.270   9.611  0.00  0.00     0.217 HD
ENDBRANCH  10  26
TORSDOF 6
ENDMDL
MODEL 4
REMARK VINA RESULT:      -5.6      7.439      9.573
REMARK  6 active torsions:
REMARK  status: ('A' for Active; 'I' for Inactive)
REMARK    1  A    between atoms: O2_2  and  C5_12 
REMARK    2  A    between atoms: O3_3  and  C7_14 
REMARK    3  A    between atoms: O5_5  and  C9_16 
REMARK    4  A    between atoms: O6_6  and  C13_20 
REMARK    5  A    between atoms: O7_7  and  C15_22 
REMARK    6  A    between atoms: C3_10  and  C4_11 
ROOT
ATOM      1  O1  UNK A          36.102  24.125  10.697  0.00  0.00    -0.306 OA
ATOM      2  O4  UNK A          33.678  22.945  13.753  0.00  0.00    -0.284 OA
ATOM      3  C1  UNK A          33.967  24.290  11.838  0.00  0.00     0.084 A 
ATOM      4  C2  UNK A          34.844  24.653  10.817  0.00  0.00     0.096 A 
ATOM      5  C3  UNK A          36.515  23.180  11.624  0.00  0.00     0.123 A 
ATOM      6  C5  UNK A          35.770  22.750  12.659  0.00  0.00     0.152 A 
ATOM      7  C6  UNK A          34.403  23.298  12.832  0.00  0.00     0.223 A 
ATOM      8  C7  UNK A          32.695  24.863  11.911  0.00  0.00     0.085 A 
ATOM      9  C8  UNK A          34.453  25.594   9.864  0.00  0.00     0.075 A 
ATOM     10  C9  UNK A          33.184  26.168   9.933  0.00  0.00     0.071 A 
ATOM     11  C11 UNK A          32.307  25.803  10.956  0.00  0.00     0.074 A 
ENDROOT
BRANCH   5  12
ATOM     12  C4  UNK A          37.885  22.694  11.379  0.00  0.00     0.004 A 
ATOM     13  C10 UNK A          38.124  21.752  10.379  0.00  0.00     0.053 A 
ATOM     14  C13 UNK A          39.421  21.295  10.147  0.00  0.00     0.099 A 
ATOM     15  C15 UNK A          40.479  21.777  10.918  0.00  0.00     0.098 A 
ATOM     16  C14 UNK A          40.240  22.719  11.918  0.00  0.00     0.040 A 
ATOM     17  C12 UNK A          38.943  23.178  12.150  0.00  0.00     0.017 A 
BRANCH  14  18
ATOM     18  O6  UNK A          39.642  20.374   9.169  0.00  0.00    -0.358 OA
ATOM     19  H9  UNK A          39.487  19.481   9.517  0.00  0.00     0.217 HD
ENDBRANCH  14  18
BRANCH  15  20
ATOM     20  O7  UNK A          41.750  21.339  10.700  0.00  0.00    -0.358 OA
ATOM     21  H10 UNK A          42.384  21.974  11.069  0.00  0.00     0.217 HD
ENDBRANCH  15  20
ENDBRANCH   5  12
BRANCH   6  22
ATOM     22  O2  UNK A          36.222  21.833  13.582  0.00  0.00    -0.355 OA
ATOM     23  H6  UNK A          36.589  21.058  13.126  0.00  0.00     0.218 HD
ENDBRANCH   6  22
BRANCH   8  24
ATOM     24  O3  UNK A          31.800  24.544  12.888  0.00  0.00    -0.360 OA
ATOM     25  H7  UNK A          32.261  24.283  13.700  0.00  0.00     0.217 HD
ENDBRANCH   8  24
BRANCH  10  26
ATOM     26  O5  UNK A          32.802  27.085   9.005  0.00  0.00    -0.361 OA
ATOM     27  H8  UNK A          33.208  26.859   8.150  0.00  0.00     0.217 HD
ENDBRANCH  10  26
TORSDOF 6
ENDMDL
MODEL 5
REMARK VINA RESULT:      -5.6      2.944      5.152
REMARK  6 active torsions:
REMARK  status: ('A' for Active; 'I' for Inactive)
REMARK    1  A    between atoms: O2_2  and  C5_12 
REMARK    2  A    between atoms: O3_3  and  C7_14 
REMARK    3  A    between atoms: O5_5  and  C9_16 
REMARK    4  A    between atoms: O6_6  and  C13_20 
REMARK    5  A    between atoms: O7_7  and  C15_22 
REMARK    6  A    between atoms: C3_10  and  C4_11 
ROOT
ATOM      1  O1  UNK A          42.476  21.352  10.787  0.00  0.00    -0.306 OA
ATOM      2  O4  UNK A          43.087  17.545  12.106  0.00  0.00    -0.284 OA
ATOM      3  C1  UNK A          44.016  19.532  11.239  0.00  0.00     0.084 A 
ATOM      4  C2  UNK A          43.741  20.826  10.800  0.00  0.00     0.096 A 
ATOM      5  C3  UNK A          41.428  20.569  11.243  0.00  0.00     0.123 A 
ATOM      6  C5  UNK A          41.557  19.304  11.685  0.00  0.00     0.152 A 
ATOM      7  C6  UNK A          42.907  18.690  11.713  0.00  0.00     0.223 A 
ATOM      8  C7  UNK A          45.327  19.048  11.229  0.00  0.00     0.085 A 
ATOM      9  C8  UNK A          44.776  21.642  10.344  0.00  0.00     0.075 A 
ATOM     10  C9  UNK A          46.086  21.162  10.332  0.00  0.00     0.071 A 
ATOM     11  C11 UNK A          46.360  19.867  10.773  0.00  0.00     0.074 A 
ENDROOT
BRANCH   5  12
ATOM     12  C4  UNK A          40.125  21.254  11.176  0.00  0.00     0.004 A 
ATOM     13  C10 UNK A          39.733  22.112  12.204  0.00  0.00     0.053 A 
ATOM     14  C13 UNK A          38.501  22.761  12.139  0.00  0.00     0.099 A 
ATOM     15  C15 UNK A          37.659  22.551  11.047  0.00  0.00     0.098 A 
ATOM     16  C14 UNK A          38.050  21.694  10.019  0.00  0.00     0.040 A 
ATOM     17  C12 UNK A          39.283  21.045  10.083  0.00  0.00     0.017 A 
BRANCH  14  18
ATOM     18  O6  UNK A          38.129  23.595  13.149  0.00  0.00    -0.358 OA
ATOM     19  H9  UNK A          37.952  23.080  13.953  0.00  0.00     0.217 HD
ENDBRANCH  14  18
BRANCH  15  20
ATOM     20  O7  UNK A          36.453  23.181  10.972  0.00  0.00    -0.358 OA
ATOM     21  H10 UNK A          35.746  22.567  11.224  0.00  0.00     0.217 HD
ENDBRANCH  15  20
ENDBRANCH   5  12
BRANCH   6  22
ATOM     22  O2  UNK A          40.489  18.539  12.102  0.00  0.00    -0.355 OA
ATOM     23  H6  UNK A          40.808  17.773  12.606  0.00  0.00     0.218 HD
ENDBRANCH   6  22
BRANCH   8  24
ATOM     24  O3  UNK A          45.649  17.792  11.648  0.00  0.00    -0.360 OA
ATOM     25  H7  UNK A          44.876  17.209  11.602  0.00  0.00     0.217 HD
ENDBRANCH   8  24
BRANCH  10  26
ATOM     26  O5  UNK A          47.097  21.957   9.888  0.00  0.00    -0.361 OA
ATOM     27  H8  UNK A          47.887  21.796  10.432  0.00  0.00     0.217 HD
ENDBRANCH  10  26
TORSDOF 6
ENDMDL
MODEL 6
REMARK VINA RESULT:      -5.5      4.576      6.043
REMARK  6 active torsions:
REMARK  status: ('A' for Active; 'I' for Inactive)
REMARK    1  A    between atoms: O2_2  and  C5_12 
REMARK    2  A    between atoms: O3_3  and  C7_14 
REMARK    3  A    between atoms: O5_5  and  C9_16 
REMARK    4  A    between atoms: O6_6  and  C13_20 
REMARK    5  A    between atoms: O7_7  and  C15_22 
REMARK    6  A    between atoms: C3_10  and  C4_11 
ROOT
ATOM      1  O1  UNK A          40.231  22.841  11.384  0.00  0.00    -0.306 OA
ATOM      2  O4  UNK A          40.618  18.814  11.876  0.00  0.00    -0.284 OA
ATOM      3  C1  UNK A          41.652  20.874  11.376  0.00  0.00     0.084 A 
ATOM      4  C2  UNK A          41.453  22.244  11.220  0.00  0.00     0.096 A 
ATOM      5  C3  UNK A          39.148  22.048  11.732  0.00  0.00     0.123 A 
ATOM      6  C5  UNK A          39.204  20.714  11.904  0.00  0.00     0.152 A 
ATOM      7  C6  UNK A          40.505  20.024  11.732  0.00  0.00     0.223 A 
ATOM      8  C7  UNK A          42.922  20.321  11.195  0.00  0.00     0.085 A 
ATOM      9  C8  UNK A          42.525  23.071  10.880  0.00  0.00     0.075 A 
ATOM     10  C9  UNK A          43.795  22.522  10.699  0.00  0.00     0.071 A 
ATOM     11  C11 UNK A          43.992  21.149  10.856  0.00  0.00     0.074 A 
ENDROOT
BRANCH   5  12
ATOM     12  C4  UNK A          37.897  22.813  11.876  0.00  0.00     0.004 A 
ATOM     13  C10 UNK A          37.038  22.959  10.787  0.00  0.00     0.053 A 
ATOM     14  C13 UNK A          35.854  23.682  10.924  0.00  0.00     0.099 A 
ATOM     15  C15 UNK A          35.529  24.261  12.152  0.00  0.00     0.098 A 
ATOM     16  C14 UNK A          36.387  24.115  13.241  0.00  0.00     0.040 A 
ATOM     17  C12 UNK A          37.572  23.391  13.104  0.00  0.00     0.017 A 
BRANCH  14  18
ATOM     18  O6  UNK A          35.024  23.819   9.854  0.00  0.00    -0.358 OA
ATOM     19  H9  UNK A          34.381  24.527  10.025  0.00  0.00     0.217 HD
ENDBRANCH  14  18
BRANCH  15  20
ATOM     20  O7  UNK A          34.373  24.968  12.299  0.00  0.00    -0.358 OA
ATOM     21  H10 UNK A          34.433  25.534  13.085  0.00  0.00     0.217 HD
ENDBRANCH  15  20
ENDBRANCH   5  12
BRANCH   6  22
ATOM     22  O2  UNK A          38.102  19.949  12.217  0.00  0.00    -0.355 OA
ATOM     23  H6  UNK A          37.535  19.850  11.435  0.00  0.00     0.218 HD
ENDBRANCH   6  22
BRANCH   8  24
ATOM     24  O3  UNK A          43.170  18.988  11.335  0.00  0.00    -0.360 OA
ATOM     25  H7  UNK A          44.061  18.772  11.020  0.00  0.00     0.217 HD
ENDBRANCH   8  24
BRANCH  10  26
ATOM     26  O5  UNK A          44.841  23.325  10.368  0.00  0.00    -0.361 OA
ATOM     27  H8  UNK A          44.540  24.250  10.360  0.00  0.00     0.217 HD
ENDBRANCH  10  26
TORSDOF 6
ENDMDL
MODEL 7
REMARK VINA RESULT:      -5.5      2.761      5.625
REMARK  6 active torsions:
REMARK  status: ('A' for Active; 'I' for Inactive)
REMARK    1  A    between atoms: O2_2  and  C5_12 
REMARK    2  A    between atoms: O3_3  and  C7_14 
REMARK    3  A    between atoms: O5_5  and  C9_16 
REMARK    4  A    between atoms: O6_6  and  C13_20 
REMARK    5  A    between atoms: O7_7  and  C15_22 
REMARK    6  A    between atoms: C3_10  and  C4_11 
ROOT
ATOM      1  O1  UNK A          43.639  20.257  10.548  0.00  0.00    -0.306 OA
ATOM      2  O4  UNK A          43.696  24.223  11.485  0.00  0.00    -0.284 OA
ATOM      3  C1  UNK A          42.430  22.251  11.221  0.00  0.00     0.084 A 
ATOM      4  C2  UNK A          42.477  20.898  10.889  0.00  0.00     0.096 A 
ATOM      5  C3  UNK A          44.820  20.984  10.545  0.00  0.00     0.123 A 
ATOM      6  C5  UNK A          44.909  22.294  10.837  0.00  0.00     0.152 A 
ATOM      7  C6  UNK A          43.677  23.031  11.207  0.00  0.00     0.223 A 
ATOM      8  C7  UNK A          41.215  22.852  11.560  0.00  0.00     0.085 A 
ATOM      9  C8  UNK A          41.307  20.138  10.893  0.00  0.00     0.075 A 
ATOM     10  C9  UNK A          40.092  20.734  11.231  0.00  0.00     0.071 A 
ATOM     11  C11 UNK A          40.047  22.089  11.564  0.00  0.00     0.074 A 
ENDROOT
BRANCH   5  12
ATOM     12  C4  UNK A          45.991  20.176  10.161  0.00  0.00     0.004 A 
ATOM     13  C10 UNK A          46.691  20.473   8.992  0.00  0.00     0.053 A 
ATOM     14  C13 UNK A          47.800  19.710   8.630  0.00  0.00     0.099 A 
ATOM     15  C15 UNK A          48.209  18.647   9.437  0.00  0.00     0.098 A 
ATOM     16  C14 UNK A          47.509  18.350  10.606  0.00  0.00     0.040 A 
ATOM     17  C12 UNK A          46.400  19.114  10.969  0.00  0.00     0.017 A 
BRANCH  14  18
ATOM     18  O6  UNK A          48.475  20.008   7.485  0.00  0.00    -0.358 OA
ATOM     19  H9  UNK A          49.424  19.841   7.610  0.00  0.00     0.217 HD
ENDBRANCH  14  18
BRANCH  15  20
ATOM     20  O7  UNK A          49.292  17.895   9.094  0.00  0.00    -0.358 OA
ATOM     21  H10 UNK A          50.046  18.475   8.902  0.00  0.00     0.217 HD
ENDBRANCH  15  20
ENDBRANCH   5  12
BRANCH   6  22
ATOM     22  O2  UNK A          46.095  22.996  10.793  0.00  0.00    -0.355 OA
ATOM     23  H6  UNK A          46.534  22.955  11.658  0.00  0.00     0.218 HD
ENDBRANCH   6  22
BRANCH   8  24
ATOM     24  O3  UNK A          41.114  24.170  11.892  0.00  0.00    -0.360 OA
ATOM     25  H7  UNK A          40.613  24.653  11.218  0.00  0.00     0.217 HD
ENDBRANCH   8  24
BRANCH  10  26
ATOM     26  O5  UNK A          38.950  19.995  11.235  0.00  0.00    -0.361 OA
ATOM     27  H8  UNK A          38.796  19.646  10.341  0.00  0.00     0.217 HD
ENDBRANCH  10  26
TORSDOF 6
ENDMDL
MODEL 8
REMARK VINA RESULT:      -5.5      2.515      5.987
REMARK  6 active torsions:
REMARK  status: ('A' for Active; 'I' for Inactive)
REMARK    1  A    between atoms: O2_2  and  C5_12 
REMARK    2  A    between atoms: O3_3  and  C7_14 
REMARK    3  A    between atoms: O5_5  and  C9_16 
REMARK    4  A    between atoms: O6_6  and  C13_20 
REMARK    5  A    between atoms: O7_7  and  C15_22 
REMARK    6  A    between atoms: C3_10  and  C4_11 
ROOT
ATOM      1  O1  UNK A          43.596  22.053  11.346  0.00  0.00    -0.306 OA
ATOM      2  O4  UNK A          40.039  20.103  10.960  0.00  0.00    -0.284 OA
ATOM      3  C1  UNK A          41.178  22.084  11.544  0.00  0.00     0.084 A 
ATOM      4  C2  UNK A          42.425  22.694  11.656  0.00  0.00     0.096 A 
ATOM      5  C3  UNK A          43.535  20.746  10.890  0.00  0.00     0.123 A 
ATOM      6  C5  UNK A          42.397  20.042  10.745  0.00  0.00     0.152 A 
ATOM      7  C6  UNK A          41.106  20.693  11.073  0.00  0.00     0.223 A 
ATOM      8  C7  UNK A          40.017  22.787  11.876  0.00  0.00     0.085 A 
ATOM      9  C8  UNK A          42.520  24.013  12.104  0.00  0.00     0.075 A 
ATOM     10  C9  UNK A          41.363  24.718  12.436  0.00  0.00     0.071 A 
ATOM     11  C11 UNK A          40.114  24.105  12.322  0.00  0.00     0.074 A 
ENDROOT
BRANCH   5  12
ATOM     12  C4  UNK A          44.861  20.177  10.593  0.00  0.00     0.004 A 
ATOM     13  C10 UNK A          45.577  20.616   9.479  0.00  0.00     0.053 A 
ATOM     14  C13 UNK A          46.832  20.078   9.199  0.00  0.00     0.099 A 
ATOM     15  C15 UNK A          47.372  19.099  10.033  0.00  0.00     0.098 A 
ATOM     16  C14 UNK A          46.657  18.659  11.147  0.00  0.00     0.040 A 
ATOM     17  C12 UNK A          45.402  19.198  11.427  0.00  0.00     0.017 A 
BRANCH  14  18
ATOM     18  O6  UNK A          47.521  20.514   8.108  0.00  0.00    -0.358 OA
ATOM     19  H9  UNK A          48.205  21.146   8.383  0.00  0.00     0.217 HD
ENDBRANCH  14  18
BRANCH  15  20
ATOM     20  O7  UNK A          48.599  18.567   9.771  0.00  0.00    -0.358 OA
ATOM     21  H10 UNK A          48.650  18.304   8.839  0.00  0.00     0.217 HD
ENDBRANCH  15  20
ENDBRANCH   5  12
BRANCH   6  22
ATOM     22  O2  UNK A          42.372  18.731  10.319  0.00  0.00    -0.355 OA
ATOM     23  H6  UNK A          42.090  18.691   9.390  0.00  0.00     0.218 HD
ENDBRANCH   6  22
BRANCH   8  24
ATOM     24  O3  UNK A          38.773  22.237  11.785  0.00  0.00    -0.360 OA
ATOM     25  H7  UNK A          38.832  21.302  11.536  0.00  0.00     0.217 HD
ENDBRANCH   8  24
BRANCH  10  26
ATOM     26  O5  UNK A          41.452  26.003  12.871  0.00  0.00    -0.361 OA
ATOM     27  H8  UNK A          41.272  26.603  12.127  0.00  0.00     0.217 HD
ENDBRANCH  10  26
TORSDOF 6
ENDMDL
MODEL 9
REMARK VINA RESULT:      -5.5      2.786      5.923
REMARK  6 active torsions:
REMARK  status: ('A' for Active; 'I' for Inactive)
REMARK    1  A    between atoms: O2_2  and  C5_12 
REMARK    2  A    between atoms: O3_3  and  C7_14 
REMARK    3  A    between atoms: O5_5  and  C9_16 
REMARK    4  A    between atoms: O6_6  and  C13_20 
REMARK    5  A    between atoms: O7_7  and  C15_22 
REMARK    6  A    between atoms: C3_10  and  C4_11 
ROOT
ATOM      1  O1  UNK A          44.164  20.894  10.172  0.00  0.00    -0.306 OA
ATOM      2  O4  UNK A          46.009  23.560  12.641  0.00  0.00    -0.284 OA
ATOM      3  C1  UNK A          46.186  22.068  10.824  0.00  0.00     0.084 A 
ATOM      4  C2  UNK A          45.497  21.166  10.014  0.00  0.00     0.096 A 
ATOM      5  C3  UNK A          43.468  21.554  11.173  0.00  0.00     0.123 A 
ATOM      6  C5  UNK A          44.015  22.440  12.026  0.00  0.00     0.152 A 
ATOM      7  C6  UNK A          45.456  22.762  11.896  0.00  0.00     0.223 A 
ATOM      8  C7  UNK A          47.547  22.305  10.616  0.00  0.00     0.085 A 
ATOM      9  C8  UNK A          46.168  20.494   8.992  0.00  0.00     0.075 A 
ATOM     10  C9  UNK A          47.527  20.728   8.781  0.00  0.00     0.071 A 
ATOM     11  C11 UNK A          48.215  21.632   9.593  0.00  0.00     0.074 A 
ENDROOT
BRANCH   5  12
ATOM     12  C4  UNK A          42.046  21.170  11.234  0.00  0.00     0.004 A 
ATOM     13  C10 UNK A          41.661  20.025  11.931  0.00  0.00     0.053 A 
ATOM     14  C13 UNK A          40.316  19.663  11.990  0.00  0.00     0.099 A 
ATOM     15  C15 UNK A          39.355  20.446  11.349  0.00  0.00     0.098 A 
ATOM     16  C14 UNK A          39.739  21.591  10.652  0.00  0.00     0.040 A 
ATOM     17  C12 UNK A          41.085  21.954  10.594  0.00  0.00     0.017 A 
BRANCH  14  18
ATOM     18  O6  UNK A          39.952  18.542  12.672  0.00  0.00    -0.358 OA
ATOM     19  H9  UNK A          40.695  18.231  13.213  0.00  0.00     0.217 HD
ENDBRANCH  14  18
BRANCH  15  20
ATOM     20  O7  UNK A          38.037  20.103  11.401  0.00  0.00    -0.358 OA
ATOM     21  H10 UNK A          37.783  19.913  12.317  0.00  0.00     0.217 HD
ENDBRANCH  15  20
ENDBRANCH   5  12
BRANCH   6  22
ATOM     22  O2  UNK A          43.301  23.055  13.032  0.00  0.00    -0.355 OA
ATOM     23  H6  UNK A          43.786  23.833  13.351  0.00  0.00     0.218 HD
ENDBRANCH   6  22
BRANCH   8  24
ATOM     24  O3  UNK A          48.266  23.176  11.379  0.00  0.00    -0.360 OA
ATOM     25  H7  UNK A          47.973  24.087  11.222  0.00  0.00     0.217 HD
ENDBRANCH   8  24
BRANCH  10  26
ATOM     26  O5  UNK A          48.183  20.074   7.785  0.00  0.00    -0.361 OA
ATOM     27  H8  UNK A          48.684  19.334   8.169  0.00  0.00     0.217 HD
ENDBRANCH  10  26
TORSDOF 6
ENDMDL
MODEL 10
REMARK VINA RESULT:      -5.4      2.053      6.857
REMARK  6 active torsions:
REMARK  status: ('A' for Active; 'I' for Inactive)
REMARK    1  A    between atoms: O2_2  and  C5_12 
REMARK    2  A    between atoms: O3_3  and  C7_14 
REMARK    3  A    between atoms: O5_5  and  C9_16 
REMARK    4  A    between atoms: O6_6  and  C13_20 
REMARK    5  A    between atoms: O7_7  and  C15_22 
REMARK    6  A    between atoms: C3_10  and  C4_11 
ROOT
ATOM      1  O1  UNK A          41.546  22.964  12.264  0.00  0.00    -0.306 OA
ATOM      2  O4  UNK A          44.685  25.269  11.062  0.00  0.00    -0.284 OA
ATOM      3  C1  UNK A          42.482  25.173  11.898  0.00  0.00     0.084 A 
ATOM      4  C2  UNK A          41.445  24.330  12.294  0.00  0.00     0.096 A 
ATOM      5  C3  UNK A          42.735  22.397  11.833  0.00  0.00     0.123 A 
ATOM      6  C5  UNK A          43.807  23.097  11.416  0.00  0.00     0.152 A 
ATOM      7  C6  UNK A          43.742  24.579  11.427  0.00  0.00     0.223 A 
ATOM      8  C7  UNK A          42.321  26.560  11.950  0.00  0.00     0.085 A 
ATOM      9  C8  UNK A          40.239  24.870  12.743  0.00  0.00     0.075 A 
ATOM     10  C9  UNK A          40.075  26.255  12.796  0.00  0.00     0.071 A 
ATOM     11  C11 UNK A          41.115  27.097  12.399  0.00  0.00     0.074 A 
ENDROOT
BRANCH   5  12
ATOM     12  C4  UNK A          42.711  20.924  11.849  0.00  0.00     0.004 A 
ATOM     13  C10 UNK A          43.179  20.230  12.965  0.00  0.00     0.053 A 
ATOM     14  C13 UNK A          43.154  18.836  12.981  0.00  0.00     0.099 A 
ATOM     15  C15 UNK A          42.662  18.135  11.880  0.00  0.00     0.098 A 
ATOM     16  C14 UNK A          42.193  18.828  10.764  0.00  0.00     0.040 A 
ATOM     17  C12 UNK A          42.217  20.223  10.749  0.00  0.00     0.017 A 
BRANCH  14  18
ATOM     18  O6  UNK A          43.616  18.169  14.075  0.00  0.00    -0.358 OA
ATOM     19  H9  UNK A          43.209  17.289  14.119  0.00  0.00     0.217 HD
ENDBRANCH  14  18
BRANCH  15  20
ATOM     20  O7  UNK A          42.631  16.773  11.884  0.00  0.00    -0.358 OA
ATOM     21  H10 UNK A          42.861  16.443  12.767  0.00  0.00     0.217 HD
ENDBRANCH  15  20
ENDBRANCH   5  12
BRANCH   6  22
ATOM     22  O2  UNK A          44.964  22.503  10.962  0.00  0.00    -0.355 OA
ATOM     23  H6  UNK A          44.843  21.541  10.911  0.00  0.00     0.218 HD
ENDBRANCH   6  22
BRANCH   8  24
ATOM     24  O3  UNK A          43.302  27.428  11.574  0.00  0.00    -0.360 OA
ATOM     25  H7  UNK A          43.859  27.035  10.885  0.00  0.00     0.217 HD
ENDBRANCH   8  24
BRANCH  10  26
ATOM     26  O5  UNK A          38.901  26.783  13.233  0.00  0.00    -0.361 OA
ATOM     27  H8  UNK A          38.624  27.488  12.622  0.00  0.00     0.217 HD
ENDBRANCH  10  26
TORSDOF 6
ENDMDL
MODEL 11
REMARK VINA RESULT:      -5.4      2.473      6.450
REMARK  6 active torsions:
REMARK  status: ('A' for Active; 'I' for Inactive)
REMARK    1  A    between atoms: O2_2  and  C5_12 
REMARK    2  A    between atoms: O3_3  and  C7_14 
REMARK    3  A    between atoms: O5_5  and  C9_16 
REMARK    4  A    between atoms: O6_6  and  C13_20 
REMARK    5  A    between atoms: O7_7  and  C15_22 
REMARK    6  A    between atoms: C3_10  and  C4_11 
ROOT
ATOM      1  O1  UNK A          44.860  22.997  10.762  0.00  0.00    -0.306 OA
ATOM      2  O4  UNK A          41.176  21.478  11.618  0.00  0.00    -0.284 OA
ATOM      3  C1  UNK A          42.574  23.373  11.486  0.00  0.00     0.084 A 
ATOM      4  C2  UNK A          43.854  23.830  11.179  0.00  0.00     0.096 A 
ATOM      5  C3  UNK A          44.587  21.645  10.628  0.00  0.00     0.123 A 
ATOM      6  C5  UNK A          43.397  21.077  10.899  0.00  0.00     0.152 A 
ATOM      7  C6  UNK A          42.281  21.938  11.358  0.00  0.00     0.223 A 
ATOM      8  C7  UNK A          41.588  24.269  11.908  0.00  0.00     0.085 A 
ATOM      9  C8  UNK A          44.157  25.187  11.295  0.00  0.00     0.075 A 
ATOM     10  C9  UNK A          43.176  26.084  11.716  0.00  0.00     0.071 A 
ATOM     11  C11 UNK A          41.894  25.625  12.022  0.00  0.00     0.074 A 
ENDROOT
BRANCH   5  12
ATOM     12  C4  UNK A          45.751  20.865  10.173  0.00  0.00     0.004 A 
ATOM     13  C10 UNK A          46.439  21.245   9.020  0.00  0.00     0.053 A 
ATOM     14  C13 UNK A          47.542  20.507   8.591  0.00  0.00     0.099 A 
ATOM     15  C15 UNK A          47.956  19.388   9.314  0.00  0.00     0.098 A 
ATOM     16  C14 UNK A          47.269  19.008  10.466  0.00  0.00     0.040 A 
ATOM     17  C12 UNK A          46.166  19.746  10.896  0.00  0.00     0.017 A 
BRANCH  14  18
ATOM     18  O6  UNK A          48.205  20.887   7.463  0.00  0.00    -0.358 OA
ATOM     19  H9  UNK A          48.502  21.807   7.551  0.00  0.00     0.217 HD
ENDBRANCH  14  18
BRANCH  15  20
ATOM     20  O7  UNK A          49.033  18.660   8.905  0.00  0.00    -0.358 OA
ATOM     21  H10 UNK A          49.041  18.602   7.936  0.00  0.00     0.217 HD
ENDBRANCH  15  20
ENDBRANCH   5  12
BRANCH   6  22
ATOM     22  O2  UNK A          43.167  19.723  10.786  0.00  0.00    -0.355 OA
ATOM     23  H6  UNK A          42.439  19.461  11.372  0.00  0.00     0.218 HD
ENDBRANCH   6  22
BRANCH   8  24
ATOM     24  O3  UNK A          40.322  23.874  12.219  0.00  0.00    -0.360 OA
ATOM     25  H7  UNK A          40.314  22.947  12.501  0.00  0.00     0.217 HD
ENDBRANCH   8  24
BRANCH  10  26
ATOM     26  O5  UNK A          43.469  27.408  11.829  0.00  0.00    -0.361 OA
ATOM     27  H8  UNK A          43.731  27.750  10.957  0.00  0.00     0.217 HD
ENDBRANCH  10  26
TORSDOF 6
ENDMDL
MODEL 12
REMARK VINA RESULT:      -5.4      0.618      1.455
REMARK  6 active torsions:
REMARK  status: ('A' for Active; 'I' for Inactive)
REMARK    1  A    between atoms: O2_2  and  C5_12 
REMARK    2  A    between atoms: O3_3  and  C7_14 
REMARK    3  A    between atoms: O5_5  and  C9_16 
REMARK    4  A    between atoms: O6_6  and  C13_20 
REMARK    5  A    between atoms: O7_7  and  C15_22 
REMARK    6  A    between atoms: C3_10  and  C4_11 
ROOT
ATOM      1  O1  UNK A          42.580  21.249  11.979  0.00  0.00    -0.306 OA
ATOM      2  O4  UNK A          46.027  19.136  11.470  0.00  0.00    -0.284 OA
ATOM      3  C1  UNK A          43.721  19.108  11.966  0.00  0.00     0.084 A 
ATOM      4  C2  UNK A          42.577  19.887  12.128  0.00  0.00     0.096 A 
ATOM      5  C3  UNK A          43.769  21.876  11.641  0.00  0.00     0.123 A 
ATOM      6  C5  UNK A          44.942  21.242  11.464  0.00  0.00     0.152 A 
ATOM      7  C6  UNK A          44.989  19.768  11.620  0.00  0.00     0.223 A 
ATOM      8  C7  UNK A          43.659  17.722  12.131  0.00  0.00     0.085 A 
ATOM      9  C8  UNK A          41.363  19.284  12.458  0.00  0.00     0.075 A 
ATOM     10  C9  UNK A          41.297  17.900  12.624  0.00  0.00     0.071 A 
ATOM     11  C11 UNK A          42.444  17.121  12.461  0.00  0.00     0.074 A 
ENDROOT
BRANCH   5  12
ATOM     12  C4  UNK A          43.632  23.338  11.512  0.00  0.00     0.004 A 
ATOM     13  C10 UNK A          43.604  24.140  12.654  0.00  0.00     0.053 A 
ATOM     14  C13 UNK A          43.477  25.523  12.532  0.00  0.00     0.099 A 
ATOM     15  C15 UNK A          43.374  26.105  11.267  0.00  0.00     0.098 A 
ATOM     16  C14 UNK A          43.402  25.304  10.126  0.00  0.00     0.040 A 
ATOM     17  C12 UNK A          43.530  23.920  10.248  0.00  0.00     0.017 A 
BRANCH  14  18
ATOM     18  O6  UNK A          43.450  26.296  13.653  0.00  0.00    -0.358 OA
ATOM     19  H9  UNK A          44.234  26.868  13.676  0.00  0.00     0.217 HD
ENDBRANCH  14  18
BRANCH  15  20
ATOM     20  O7  UNK A          43.250  27.455  11.135  0.00  0.00    -0.358 OA
ATOM     21  H10 UNK A          42.871  27.666  10.268  0.00  0.00     0.217 HD
ENDBRANCH  15  20
ENDBRANCH   5  12
BRANCH   6  22
ATOM     22  O2  UNK A          46.115  21.899  11.160  0.00  0.00    -0.355 OA
ATOM     23  H6  UNK A          45.916  22.749  10.735  0.00  0.00     0.218 HD
ENDBRANCH   6  22
BRANCH   8  24
ATOM     24  O3  UNK A          44.747  16.915  11.984  0.00  0.00    -0.360 OA
ATOM     25  H7  UNK A          44.480  15.983  11.962  0.00  0.00     0.217 HD
ENDBRANCH   8  24
BRANCH  10  26
ATOM     26  O5  UNK A          40.115  17.310  12.946  0.00  0.00    -0.361 OA
ATOM     27  H8  UNK A          39.406  17.974  12.895  0.00  0.00     0.217 HD
ENDBRANCH  10  26
TORSDOF 6
ENDMDL
MODEL 13
REMARK VINA RESULT:      -5.4      1.551      7.092
REMARK  6 active torsions:
REMARK  status: ('A' for Active; 'I' for Inactive)
REMARK    1  A    between atoms: O2_2  and  C5_12 
REMARK    2  A    between atoms: O3_3  and  C7_14 
REMARK    3  A    between atoms: O5_5  and  C9_16 
REMARK    4  A    between atoms: O6_6  and  C13_20 
REMARK    5  A    between atoms: O7_7  and  C15_22 
REMARK    6  A    between atoms: C3_10  and  C4_11 
ROOT
ATOM      1  O1  UNK A          43.061  22.110  11.375  0.00  0.00    -0.306 OA
ATOM      2  O4  UNK A          43.260  24.272  14.824  0.00  0.00    -0.284 OA
ATOM      3  C1  UNK A          43.353  24.257  12.468  0.00  0.00     0.084 A 
ATOM      4  C2  UNK A          43.276  23.462  11.326  0.00  0.00     0.096 A 
ATOM      5  C3  UNK A          42.900  21.510  12.614  0.00  0.00     0.123 A 
ATOM      6  C5  UNK A          42.960  22.161  13.791  0.00  0.00     0.152 A 
ATOM      7  C6  UNK A          43.197  23.625  13.787  0.00  0.00     0.223 A 
ATOM      8  C7  UNK A          43.576  25.632  12.356  0.00  0.00     0.085 A 
ATOM      9  C8  UNK A          43.424  24.039  10.063  0.00  0.00     0.075 A 
ATOM     10  C9  UNK A          43.646  25.411   9.948  0.00  0.00     0.071 A 
ATOM     11  C11 UNK A          43.723  26.205  11.093  0.00  0.00     0.074 A 
ENDROOT
BRANCH   5  12
ATOM     12  C4  UNK A          42.675  20.057  12.525  0.00  0.00     0.004 A 
ATOM     13  C10 UNK A          41.414  19.526  12.800  0.00  0.00     0.053 A 
ATOM     14  C13 UNK A          41.202  18.151  12.714  0.00  0.00     0.099 A 
ATOM     15  C15 UNK A          42.251  17.304  12.355  0.00  0.00     0.098 A 
ATOM     16  C14 UNK A          43.512  17.834  12.081  0.00  0.00     0.040 A 
ATOM     17  C12 UNK A          43.725  19.210  12.166  0.00  0.00     0.017 A 
BRANCH  14  18
ATOM     18  O6  UNK A          39.967  17.645  12.985  0.00  0.00    -0.358 OA
ATOM     19  H9  UNK A          39.900  16.740  12.639  0.00  0.00     0.217 HD
ENDBRANCH  14  18
BRANCH  15  20
ATOM     20  O7  UNK A          42.056  15.959  12.267  0.00  0.00    -0.358 OA
ATOM     21  H10 UNK A          42.534  15.511  12.982  0.00  0.00     0.217 HD
ENDBRANCH  15  20
ENDBRANCH   5  12
BRANCH   6  22
ATOM     22  O2  UNK A          42.829  21.530  15.008  0.00  0.00    -0.355 OA
ATOM     23  H6  UNK A          41.988  21.045  15.040  0.00  0.00     0.218 HD
ENDBRANCH   6  22
BRANCH   8  24
ATOM     24  O3  UNK A          43.660  26.453  13.441  0.00  0.00    -0.360 OA
ATOM     25  H7  UNK A          42.826  26.929  13.572  0.00  0.00     0.217 HD
ENDBRANCH   8  24
BRANCH  10  26
ATOM     26  O5  UNK A          43.790  25.975   8.719  0.00  0.00    -0.361 OA
ATOM     27  H8  UNK A          43.653  26.935   8.793  0.00  0.00     0.217 HD
ENDBRANCH  10  26
TORSDOF 6
ENDMDL
MODEL 14
REMARK VINA RESULT:      -5.4      3.656      4.496
REMARK  6 active torsions:
REMARK  status: ('A' for Active; 'I' for Inactive)
REMARK    1  A    between atoms: O2_2  and  C5_12 
REMARK    2  A    between atoms: O3_3  and  C7_14 
REMARK    3  A    between atoms: O5_5  and  C9_16 
REMARK    4  A    between atoms: O6_6  and  C13_20 
REMARK    5  A    between atoms: O7_7  and  C15_22 
REMARK    6  A    between atoms: C3_10  and  C4_11 
ROOT
ATOM      1  O1  UNK A          39.833  19.860  12.158  0.00  0.00    -0.306 OA
ATOM      2  O4  UNK A          43.562  20.636  10.707  0.00  0.00    -0.284 OA
ATOM      3  C1  UNK A          42.118  19.124  11.799  0.00  0.00     0.084 A 
ATOM      4  C2  UNK A          40.824  18.921  12.274  0.00  0.00     0.096 A 
ATOM      5  C3  UNK A          40.128  21.059  11.527  0.00  0.00     0.123 A 
ATOM      6  C5  UNK A          41.337  21.382  11.031  0.00  0.00     0.152 A 
ATOM      7  C6  UNK A          42.441  20.399  11.140  0.00  0.00     0.223 A 
ATOM      8  C7  UNK A          43.088  18.130  11.948  0.00  0.00     0.085 A 
ATOM      9  C8  UNK A          40.493  17.721  12.905  0.00  0.00     0.075 A 
ATOM     10  C9  UNK A          41.459  16.726  13.056  0.00  0.00     0.071 A 
ATOM     11  C11 UNK A          42.754  16.931  12.577  0.00  0.00     0.074 A 
ENDROOT
BRANCH   5  12
ATOM     12  C4  UNK A          38.977  21.977  11.468  0.00  0.00     0.004 A 
ATOM     13  C10 UNK A          38.859  23.010  12.398  0.00  0.00     0.053 A 
ATOM     14  C13 UNK A          37.770  23.879  12.341  0.00  0.00     0.099 A 
ATOM     15  C15 UNK A          36.797  23.714  11.354  0.00  0.00     0.098 A 
ATOM     16  C14 UNK A          36.915  22.682  10.424  0.00  0.00     0.040 A 
ATOM     17  C12 UNK A          38.005  21.813  10.480  0.00  0.00     0.017 A 
BRANCH  14  18
ATOM     18  O6  UNK A          37.664  24.883  13.255  0.00  0.00    -0.358 OA
ATOM     19  H9  UNK A          37.399  25.705  12.811  0.00  0.00     0.217 HD
ENDBRANCH  14  18
BRANCH  15  20
ATOM     20  O7  UNK A          35.730  24.558  11.287  0.00  0.00    -0.358 OA
ATOM     21  H10 UNK A          35.140  24.400  12.041  0.00  0.00     0.217 HD
ENDBRANCH  15  20
ENDBRANCH   5  12
BRANCH   6  22
ATOM     22  O2  UNK A          41.607  22.597  10.438  0.00  0.00    -0.355 OA
ATOM     23  H6  UNK A          40.892  23.225  10.633  0.00  0.00     0.218 HD
ENDBRANCH   6  22
BRANCH   8  24
ATOM     24  O3  UNK A          44.367  18.279  11.500  0.00  0.00    -0.360 OA
ATOM     25  H7  UNK A          44.568  19.215  11.349  0.00  0.00     0.217 HD
ENDBRANCH   8  24
BRANCH  10  26
ATOM     26  O5  UNK A          41.139  15.555  13.669  0.00  0.00    -0.361 OA
ATOM     27  H8  UNK A          40.395  15.144  13.197  0.00  0.00     0.217 HD
ENDBRANCH  10  26
TORSDOF 6
ENDMDL
MODEL 15
REMARK VINA RESULT:      -5.4      2.512      4.439
REMARK  6 active torsions:
REMARK  status: ('A' for Active; 'I' for Inactive)
REMARK    1  A    between atoms: O2_2  and  C5_12 
REMARK    2  A    between atoms: O3_3  and  C7_14 
REMARK    3  A    between atoms: O5_5  and  C9_16 
REMARK    4  A    between atoms: O6_6  and  C13_20 
REMARK    5  A    between atoms: O7_7  and  C15_22 
REMARK    6  A    between atoms: C3_10  and  C4_11 
ROOT
ATOM      1  O1  UNK A          44.627  19.759  11.081  0.00  0.00    -0.306 OA
ATOM      2  O4  UNK A          41.588  22.474  11.095  0.00  0.00    -0.284 OA
ATOM      3  C1  UNK A          42.296  20.266  11.527  0.00  0.00     0.084 A 
ATOM      4  C2  UNK A          43.376  19.386  11.498  0.00  0.00     0.096 A 
ATOM      5  C3  UNK A          44.829  21.072  10.685  0.00  0.00     0.123 A 
ATOM      6  C5  UNK A          43.871  22.017  10.659  0.00  0.00     0.152 A 
ATOM      7  C6  UNK A          42.500  21.658  11.095  0.00  0.00     0.223 A 
ATOM      8  C7  UNK A          41.042  19.829  11.960  0.00  0.00     0.085 A 
ATOM      9  C8  UNK A          43.207  18.061  11.900  0.00  0.00     0.075 A 
ATOM     10  C9  UNK A          41.956  17.621  12.333  0.00  0.00     0.071 A 
ATOM     11  C11 UNK A          40.876  18.504  12.362  0.00  0.00     0.074 A 
ENDROOT
BRANCH   5  12
ATOM     12  C4  UNK A          46.216  21.339  10.263  0.00  0.00     0.004 A 
ATOM     13  C10 UNK A          46.608  21.082   8.949  0.00  0.00     0.053 A 
ATOM     14  C13 UNK A          47.920  21.336   8.550  0.00  0.00     0.099 A 
ATOM     15  C15 UNK A          48.841  21.846   9.466  0.00  0.00     0.098 A 
ATOM     16  C14 UNK A          48.449  22.103  10.780  0.00  0.00     0.040 A 
ATOM     17  C12 UNK A          47.137  21.850  11.179  0.00  0.00     0.017 A 
BRANCH  14  18
ATOM     18  O6  UNK A          48.291  21.081   7.265  0.00  0.00    -0.358 OA
ATOM     19  H9  UNK A          48.226  20.128   7.088  0.00  0.00     0.217 HD
ENDBRANCH  14  18
BRANCH  15  20
ATOM     20  O7  UNK A          50.125  22.100   9.087  0.00  0.00    -0.358 OA
ATOM     21  H10 UNK A          50.556  22.662   9.749  0.00  0.00     0.217 HD
ENDBRANCH  15  20
ENDBRANCH   5  12
BRANCH   6  22
ATOM     22  O2  UNK A          44.097  23.306  10.228  0.00  0.00    -0.355 OA
ATOM     23  H6  UNK A          43.880  23.382   9.284  0.00  0.00     0.218 HD
ENDBRANCH   6  22
BRANCH   8  24
ATOM     24  O3  UNK A          39.954  20.649  12.008  0.00  0.00    -0.360 OA
ATOM     25  H7  UNK A          39.337  20.355  12.694  0.00  0.00     0.217 HD
ENDBRANCH   8  24
BRANCH  10  26
ATOM     26  O5  UNK A          41.789  16.329  12.726  0.00  0.00    -0.361 OA
ATOM     27  H8  UNK A          42.420  15.767  12.243  0.00  0.00     0.217 HD
ENDBRANCH  10  26
TORSDOF 6
ENDMDL
MODEL 16
REMARK VINA RESULT:      -5.4      4.186      5.722
REMARK  6 active torsions:
REMARK  status: ('A' for Active; 'I' for Inactive)
REMARK    1  A    between atoms: O2_2  and  C5_12 
REMARK    2  A    between atoms: O3_3  and  C7_14 
REMARK    3  A    between atoms: O5_5  and  C9_16 
REMARK    4  A    between atoms: O6_6  and  C13_20 
REMARK    5  A    between atoms: O7_7  and  C15_22 
REMARK    6  A    between atoms: C3_10  and  C4_11 
ROOT
ATOM      1  O1  UNK A          40.698  22.511  11.147  0.00  0.00    -0.306 OA
ATOM      2  O4  UNK A          40.807  18.536  12.043  0.00  0.00    -0.284 OA
ATOM      3  C1  UNK A          41.987  20.468  11.383  0.00  0.00     0.084 A 
ATOM      4  C2  UNK A          41.883  21.826  11.088  0.00  0.00     0.096 A 
ATOM      5  C3  UNK A          39.555  21.824  11.530  0.00  0.00     0.123 A 
ATOM      6  C5  UNK A          39.519  20.514  11.832  0.00  0.00     0.152 A 
ATOM      7  C6  UNK A          40.777  19.731  11.777  0.00  0.00     0.223 A 
ATOM      8  C7  UNK A          43.224  19.822  11.304  0.00  0.00     0.085 A 
ATOM      9  C8  UNK A          43.017  22.547  10.709  0.00  0.00     0.075 A 
ATOM     10  C9  UNK A          44.253  21.905  10.629  0.00  0.00     0.071 A 
ATOM     11  C11 UNK A          44.355  20.545  10.926  0.00  0.00     0.074 A 
ENDROOT
BRANCH   5  12
ATOM     12  C4  UNK A          38.353  22.676  11.553  0.00  0.00     0.004 A 
ATOM     13  C10 UNK A          38.198  23.639  12.550  0.00  0.00     0.053 A 
ATOM     14  C13 UNK A          37.061  24.445  12.571  0.00  0.00     0.099 A 
ATOM     15  C15 UNK A          36.076  24.288  11.594  0.00  0.00     0.098 A 
ATOM     16  C14 UNK A          36.231  23.325  10.597  0.00  0.00     0.040 A 
ATOM     17  C12 UNK A          37.369  22.519  10.576  0.00  0.00     0.017 A 
BRANCH  14  18
ATOM     18  O6  UNK A          36.919  25.381  13.550  0.00  0.00    -0.358 OA
ATOM     19  H9  UNK A          37.547  25.201  14.269  0.00  0.00     0.217 HD
ENDBRANCH  14  18
BRANCH  15  20
ATOM     20  O7  UNK A          34.961  25.071  11.603  0.00  0.00    -0.358 OA
ATOM     21  H10 UNK A          34.288  24.688  11.020  0.00  0.00     0.217 HD
ENDBRANCH  15  20
ENDBRANCH   5  12
BRANCH   6  22
ATOM     22  O2  UNK A          38.360  19.853  12.178  0.00  0.00    -0.355 OA
ATOM     23  H6  UNK A          38.107  20.084  13.087  0.00  0.00     0.218 HD
ENDBRANCH   6  22
BRANCH   8  24
ATOM     24  O3  UNK A          43.379  18.497  11.582  0.00  0.00    -0.360 OA
ATOM     25  H7  UNK A          42.525  18.041  11.554  0.00  0.00     0.217 HD
ENDBRANCH   8  24
BRANCH  10  26
ATOM     26  O5  UNK A          45.359  22.606  10.261  0.00  0.00    -0.361 OA
ATOM     27  H8  UNK A          46.010  22.572  10.983  0.00  0.00     0.217 HD
ENDBRANCH  10  26
TORSDOF 6
ENDMDL
MODEL 17
REMARK VINA RESULT:      -5.4      5.587      6.852
REMARK  6 active torsions:
REMARK  status: ('A' for Active; 'I' for Inactive)
REMARK    1  A    between atoms: O2_2  and  C5_12 
REMARK    2  A    between atoms: O3_3  and  C7_14 
REMARK    3  A    between atoms: O5_5  and  C9_16 
REMARK    4  A    between atoms: O6_6  and  C13_20 
REMARK    5  A    between atoms: O7_7  and  C15_22 
REMARK    6  A    between atoms: C3_10  and  C4_11 
ROOT
ATOM      1  O1  UNK A          38.559  22.035  11.353  0.00  0.00    -0.306 OA
ATOM      2  O4  UNK A          41.268  24.727  12.775  0.00  0.00    -0.284 OA
ATOM      3  C1  UNK A          40.872  22.614  11.806  0.00  0.00     0.084 A 
ATOM      4  C2  UNK A          39.896  21.737  11.335  0.00  0.00     0.096 A 
ATOM      5  C3  UNK A          38.162  23.268  11.847  0.00  0.00     0.123 A 
ATOM      6  C5  UNK A          39.001  24.199  12.337  0.00  0.00     0.152 A 
ATOM      7  C6  UNK A          40.457  23.918  12.344  0.00  0.00     0.223 A 
ATOM      8  C7  UNK A          42.221  22.255  11.764  0.00  0.00     0.085 A 
ATOM      9  C8  UNK A          40.265  20.493  10.823  0.00  0.00     0.075 A 
ATOM     10  C9  UNK A          41.611  20.131  10.780  0.00  0.00     0.071 A 
ATOM     11  C11 UNK A          42.587  21.011  11.250  0.00  0.00     0.074 A 
ENDROOT
BRANCH   5  12
ATOM     12  C4  UNK A          36.702  23.461  11.808  0.00  0.00     0.004 A 
ATOM     13  C10 UNK A          36.123  24.212  10.784  0.00  0.00     0.053 A 
ATOM     14  C13 UNK A          34.741  24.392  10.746  0.00  0.00     0.099 A 
ATOM     15  C15 UNK A          33.936  23.824  11.734  0.00  0.00     0.098 A 
ATOM     16  C14 UNK A          34.514  23.073  12.758  0.00  0.00     0.040 A 
ATOM     17  C12 UNK A          35.896  22.891  12.795  0.00  0.00     0.017 A 
BRANCH  14  18
ATOM     18  O6  UNK A          34.188  25.129   9.743  0.00  0.00    -0.358 OA
ATOM     19  H9  UNK A          34.690  24.996   8.923  0.00  0.00     0.217 HD
ENDBRANCH  14  18
BRANCH  15  20
ATOM     20  O7  UNK A          32.584  23.993  11.707  0.00  0.00    -0.358 OA
ATOM     21  H10 UNK A          32.175  23.278  11.194  0.00  0.00     0.217 HD
ENDBRANCH  15  20
ENDBRANCH   5  12
BRANCH   6  22
ATOM     22  O2  UNK A          38.571  25.403  12.852  0.00  0.00    -0.355 OA
ATOM     23  H6  UNK A          38.393  25.311  13.802  0.00  0.00     0.218 HD
ENDBRANCH   6  22
BRANCH   8  24
ATOM     24  O3  UNK A          43.214  23.075  12.211  0.00  0.00    -0.360 OA
ATOM     25  H7  UNK A          43.278  23.865  11.654  0.00  0.00     0.217 HD
ENDBRANCH   8  24
BRANCH  10  26
ATOM     26  O5  UNK A          41.973  18.918  10.280  0.00  0.00    -0.361 OA
ATOM     27  H8  UNK A          42.556  18.474  10.919  0.00  0.00     0.217 HD
ENDBRANCH  10  26
TORSDOF 6
ENDMDL
MODEL 18
REMARK VINA RESULT:      -5.4      3.510      5.567
REMARK  6 active torsions:
REMARK  status: ('A' for Active; 'I' for Inactive)
REMARK    1  A    between atoms: O2_2  and  C5_12 
REMARK    2  A    between atoms: O3_3  and  C7_14 
REMARK    3  A    between atoms: O5_5  and  C9_16 
REMARK    4  A    between atoms: O6_6  and  C13_20 
REMARK    5  A    between atoms: O7_7  and  C15_22 
REMARK    6  A    between atoms: C3_10  and  C4_11 
ROOT
ATOM      1  O1  UNK A          40.842  25.091  12.645  0.00  0.00    -0.306 OA
ATOM      2  O4  UNK A          44.434  25.499  10.763  0.00  0.00    -0.284 OA
ATOM      3  C1  UNK A          42.658  24.080  11.393  0.00  0.00     0.084 A 
ATOM      4  C2  UNK A          41.433  24.006  12.052  0.00  0.00     0.096 A 
ATOM      5  C3  UNK A          41.485  26.317  12.573  0.00  0.00     0.123 A 
ATOM      6  C5  UNK A          42.673  26.521  11.975  0.00  0.00     0.152 A 
ATOM      7  C6  UNK A          43.353  25.375  11.324  0.00  0.00     0.223 A 
ATOM      8  C7  UNK A          43.214  22.939  10.808  0.00  0.00     0.085 A 
ATOM      9  C8  UNK A          40.756  22.789  12.133  0.00  0.00     0.075 A 
ATOM     10  C9  UNK A          41.307  21.648  11.550  0.00  0.00     0.071 A 
ATOM     11  C11 UNK A          42.534  21.724  10.890  0.00  0.00     0.074 A 
ENDROOT
BRANCH   5  12
ATOM     12  C4  UNK A          40.744  27.397  13.248  0.00  0.00     0.004 A 
ATOM     13  C10 UNK A          39.640  27.982  12.626  0.00  0.00     0.053 A 
ATOM     14  C13 UNK A          38.938  29.002  13.266  0.00  0.00     0.099 A 
ATOM     15  C15 UNK A          39.340  29.440  14.528  0.00  0.00     0.098 A 
ATOM     16  C14 UNK A          40.443  28.856  15.151  0.00  0.00     0.040 A 
ATOM     17  C12 UNK A          41.145  27.834  14.511  0.00  0.00     0.017 A 
BRANCH  14  18
ATOM     18  O6  UNK A          37.864  29.567  12.648  0.00  0.00    -0.358 OA
ATOM     19  H9  UNK A          37.214  29.850  13.312  0.00  0.00     0.217 HD
ENDBRANCH  14  18
BRANCH  15  20
ATOM     20  O7  UNK A          38.661  30.436  15.164  0.00  0.00    -0.358 OA
ATOM     21  H10 UNK A          38.139  30.939  14.520  0.00  0.00     0.217 HD
ENDBRANCH  15  20
ENDBRANCH   5  12
BRANCH   6  22
ATOM     22  O2  UNK A          43.302  27.747  11.949  0.00  0.00    -0.355 OA
ATOM     23  H6  UNK A          43.527  28.021  12.853  0.00  0.00     0.218 HD
ENDBRANCH   6  22
BRANCH   8  24
ATOM     24  O3  UNK A          44.408  22.957  10.152  0.00  0.00    -0.360 OA
ATOM     25  H7  UNK A          44.295  23.291   9.250  0.00  0.00     0.217 HD
ENDBRANCH   8  24
BRANCH  10  26
ATOM     26  O5  UNK A          40.649  20.460  11.627  0.00  0.00    -0.361 OA
ATOM     27  H8  UNK A          41.184  19.773  11.193  0.00  0.00     0.217 HD
ENDBRANCH  10  26
TORSDOF 6
ENDMDL
MODEL 19
REMARK VINA RESULT:      -5.4      4.699      7.818
REMARK  6 active torsions:
REMARK  status: ('A' for Active; 'I' for Inactive)
REMARK    1  A    between atoms: O2_2  and  C5_12 
REMARK    2  A    between atoms: O3_3  and  C7_14 
REMARK    3  A    between atoms: O5_5  and  C9_16 
REMARK    4  A    between atoms: O6_6  and  C13_20 
REMARK    5  A    between atoms: O7_7  and  C15_22 
REMARK    6  A    between atoms: C3_10  and  C4_11 
ROOT
ATOM      1  O1  UNK A          38.141  22.263  11.600  0.00  0.00    -0.306 OA
ATOM      2  O4  UNK A          39.778  25.658  13.150  0.00  0.00    -0.284 OA
ATOM      3  C1  UNK A          37.991  24.655  11.984  0.00  0.00     0.084 A 
ATOM      4  C2  UNK A          37.485  23.460  11.476  0.00  0.00     0.096 A 
ATOM      5  C3  UNK A          39.353  22.239  12.273  0.00  0.00     0.123 A 
ATOM      6  C5  UNK A          39.953  23.322  12.802  0.00  0.00     0.152 A 
ATOM      7  C6  UNK A          39.282  24.639  12.687  0.00  0.00     0.223 A 
ATOM      8  C7  UNK A          37.278  25.846  11.826  0.00  0.00     0.085 A 
ATOM      9  C8  UNK A          36.263  23.449  10.802  0.00  0.00     0.075 A 
ATOM     10  C9  UNK A          35.548  24.637  10.642  0.00  0.00     0.071 A 
ATOM     11  C11 UNK A          36.056  25.832  11.153  0.00  0.00     0.074 A 
ENDROOT
BRANCH   5  12
ATOM     12  C4  UNK A          39.950  20.894  12.335  0.00  0.00     0.004 A 
ATOM     13  C10 UNK A          40.784  20.451  11.308  0.00  0.00     0.053 A 
ATOM     14  C13 UNK A          41.350  19.178  11.368  0.00  0.00     0.099 A 
ATOM     15  C15 UNK A          41.081  18.346  12.456  0.00  0.00     0.098 A 
ATOM     16  C14 UNK A          40.247  18.788  13.483  0.00  0.00     0.040 A 
ATOM     17  C12 UNK A          39.682  20.062  13.423  0.00  0.00     0.017 A 
BRANCH  14  18
ATOM     18  O6  UNK A          42.162  18.756  10.359  0.00  0.00    -0.358 OA
ATOM     19  H9  UNK A          43.074  18.680  10.682  0.00  0.00     0.217 HD
ENDBRANCH  14  18
BRANCH  15  20
ATOM     20  O7  UNK A          41.629  17.101  12.526  0.00  0.00    -0.358 OA
ATOM     21  H10 UNK A          40.932  16.445  12.687  0.00  0.00     0.217 HD
ENDBRANCH  15  20
ENDBRANCH   5  12
BRANCH   6  22
ATOM     22  O2  UNK A          41.175  23.270  13.437  0.00  0.00    -0.355 OA
ATOM     23  H6  UNK A          41.235  23.979  14.097  0.00  0.00     0.218 HD
ENDBRANCH   6  22
BRANCH   8  24
ATOM     24  O3  UNK A          37.727  27.040  12.303  0.00  0.00    -0.360 OA
ATOM     25  H7  UNK A          37.654  27.069  13.269  0.00  0.00     0.217 HD
ENDBRANCH   8  24
BRANCH  10  26
ATOM     26  O5  UNK A          34.356  24.629   9.987  0.00  0.00    -0.361 OA
ATOM     27  H8  UNK A          34.497  24.922   9.070  0.00  0.00     0.217 HD
ENDBRANCH  10  26
TORSDOF 6
ENDMDL
MODEL 20
REMARK VINA RESULT:      -5.2      2.744      4.727
REMARK  6 active torsions:
REMARK  status: ('A' for Active; 'I' for Inactive)
REMARK    1  A    between atoms: O2_2  and  C5_12 
REMARK    2  A    between atoms: O3_3  and  C7_14 
REMARK    3  A    between atoms: O5_5  and  C9_16 
REMARK    4  A    between atoms: O6_6  and  C13_20 
REMARK    5  A    between atoms: O7_7  and  C15_22 
REMARK    6  A    between atoms: C3_10  and  C4_11 
ROOT
ATOM      1  O1  UNK A          41.960  21.245  10.697  0.00  0.00    -0.306 OA
ATOM      2  O4  UNK A          41.119  18.865  13.897  0.00  0.00    -0.284 OA
ATOM      3  C1  UNK A          40.307  20.253  12.171  0.00  0.00     0.084 A 
ATOM      4  C2  UNK A          40.660  21.054  11.088  0.00  0.00     0.096 A 
ATOM      5  C3  UNK A          42.964  20.601  11.403  0.00  0.00     0.123 A 
ATOM      6  C5  UNK A          42.758  19.808  12.470  0.00  0.00     0.152 A 
ATOM      7  C6  UNK A          41.369  19.577  12.933  0.00  0.00     0.223 A 
ATOM      8  C7  UNK A          38.964  20.097  12.525  0.00  0.00     0.085 A 
ATOM      9  C8  UNK A          39.671  21.708  10.351  0.00  0.00     0.075 A 
ATOM     10  C9  UNK A          38.329  21.554  10.701  0.00  0.00     0.071 A 
ATOM     11  C11 UNK A          37.978  20.750  11.786  0.00  0.00     0.074 A 
ENDROOT
BRANCH   5  12
ATOM     12  C4  UNK A          44.311  20.890  10.879  0.00  0.00     0.004 A 
ATOM     13  C10 UNK A          44.984  22.044  11.282  0.00  0.00     0.053 A 
ATOM     14  C13 UNK A          46.259  22.316  10.788  0.00  0.00     0.099 A 
ATOM     15  C15 UNK A          46.861  21.436   9.888  0.00  0.00     0.098 A 
ATOM     16  C14 UNK A          46.189  20.282   9.485  0.00  0.00     0.040 A 
ATOM     17  C12 UNK A          44.913  20.009   9.981  0.00  0.00     0.017 A 
BRANCH  14  18
ATOM     18  O6  UNK A          46.906  23.446  11.187  0.00  0.00    -0.358 OA
ATOM     19  H9  UNK A          47.045  23.423  12.147  0.00  0.00     0.217 HD
ENDBRANCH  14  18
BRANCH  15  20
ATOM     20  O7  UNK A          48.107  21.690   9.399  0.00  0.00    -0.358 OA
ATOM     21  H10 UNK A          48.145  22.597   9.055  0.00  0.00     0.217 HD
ENDBRANCH  15  20
ENDBRANCH   5  12
BRANCH   6  22
ATOM     22  O2  UNK A          43.782  19.208  13.171  0.00  0.00    -0.355 OA
ATOM     23  H6  UNK A          43.579  19.212  14.120  0.00  0.00     0.218 HD
ENDBRANCH   6  22
BRANCH   8  24
ATOM     24  O3  UNK A          38.566  19.324  13.575  0.00  0.00    -0.360 OA
ATOM     25  H7  UNK A          37.971  19.822  14.156  0.00  0.00     0.217 HD
ENDBRANCH   8  24
BRANCH  10  26
ATOM     26  O5  UNK A          37.363  22.189   9.984  0.00  0.00    -0.361 OA
ATOM     27  H8  UNK A          37.489  21.992   9.040  0.00  0.00     0.217 HD
ENDBRANCH  10  26
TORSDOF 6
ENDMDL
