MODEL 1
REMARK VINA RESULT:      -7.5      0.000      0.000
REMARK  6 active torsions:
REMARK  status: ('A' for Active; 'I' for Inactive)
REMARK    1  A    between atoms: O2_2  and  C5_12 
REMARK    2  A    between atoms: O3_3  and  C7_14 
REMARK    3  A    between atoms: O5_5  and  C9_16 
REMARK    4  A    between atoms: O6_6  and  C13_20 
REMARK    5  A    between atoms: O7_7  and  C15_22 
REMARK    6  A    between atoms: C3_10  and  C4_11 
ROOT
ATOM      1  O1  UNK A          39.642  15.127   0.031  0.00  0.00    -0.306 OA
ATOM      2  O4  UNK A          41.753  15.724  -3.403  0.00  0.00    -0.284 OA
ATOM      3  C1  UNK A          40.212  16.572  -1.833  0.00  0.00     0.084 A 
ATOM      4  C2  UNK A          39.517  16.306  -0.655  0.00  0.00     0.096 A 
ATOM      5  C3  UNK A          40.507  14.162  -0.462  0.00  0.00     0.123 A 
ATOM      6  C5  UNK A          41.228  14.291  -1.591  0.00  0.00     0.152 A 
ATOM      7  C6  UNK A          41.121  15.548  -2.369  0.00  0.00     0.223 A 
ATOM      8  C7  UNK A          40.043  17.793  -2.491  0.00  0.00     0.085 A 
ATOM      9  C8  UNK A          38.646  17.261  -0.127  0.00  0.00     0.075 A 
ATOM     10  C9  UNK A          38.475  18.481  -0.781  0.00  0.00     0.071 A 
ATOM     11  C11 UNK A          39.173  18.746  -1.961  0.00  0.00     0.074 A 
ENDROOT
BRANCH   5  12
ATOM     12  C4  UNK A          40.548  12.946   0.369  0.00  0.00     0.004 A 
ATOM     13  C10 UNK A          40.355  13.035   1.748  0.00  0.00     0.053 A 
ATOM     14  C13 UNK A          40.392  11.884   2.534  0.00  0.00     0.099 A 
ATOM     15  C15 UNK A          40.625  10.643   1.941  0.00  0.00     0.098 A 
ATOM     16  C14 UNK A          40.818  10.553   0.563  0.00  0.00     0.040 A 
ATOM     17  C12 UNK A          40.779  11.704  -0.224  0.00  0.00     0.017 A 
BRANCH  14  18
ATOM     18  O6  UNK A          40.204  11.984   3.879  0.00  0.00    -0.358 OA
ATOM     19  H9  UNK A          40.235  12.917   4.147  0.00  0.00     0.217 HD
ENDBRANCH  14  18
BRANCH  15  20
ATOM     20  O7  UNK A          40.662   9.511   2.698  0.00  0.00    -0.358 OA
ATOM     21  H10 UNK A          41.238   9.649   3.466  0.00  0.00     0.217 HD
ENDBRANCH  15  20
ENDBRANCH   5  12
BRANCH   6  22
ATOM     22  O2  UNK A          42.056  13.299  -2.072  0.00  0.00    -0.355 OA
ATOM     23  H6  UNK A          42.983  13.573  -1.988  0.00  0.00     0.218 HD
ENDBRANCH   6  22
BRANCH   8  24
ATOM     24  O3  UNK A          40.698  18.103  -3.645  0.00  0.00    -0.360 OA
ATOM     25  H7  UNK A          41.648  17.939  -3.551  0.00  0.00     0.217 HD
ENDBRANCH   8  24
BRANCH  10  26
ATOM     26  O5  UNK A          37.628  19.413  -0.268  0.00  0.00    -0.361 OA
ATOM     27  H8  UNK A          38.115  20.245  -0.134  0.00  0.00     0.217 HD
ENDBRANCH  10  26
TORSDOF 6
ENDMDL
MODEL 2
REMARK VINA RESULT:      -7.2      1.182      6.433
REMARK  6 active torsions:
REMARK  status: ('A' for Active; 'I' for Inactive)
REMARK    1  A    between atoms: O2_2  and  C5_12 
REMARK    2  A    between atoms: O3_3  and  C7_14 
REMARK    3  A    between atoms: O5_5  and  C9_16 
REMARK    4  A    between atoms: O6_6  and  C13_20 
REMARK    5  A    between atoms: O7_7  and  C15_22 
REMARK    6  A    between atoms: C3_10  and  C4_11 
ROOT
ATOM      1  O1  UNK A          39.731  14.417   0.195  0.00  0.00    -0.306 OA
ATOM      2  O4  UNK A          42.327  12.764  -2.476  0.00  0.00    -0.284 OA
ATOM      3  C1  UNK A          40.967  12.474  -0.571  0.00  0.00     0.084 A 
ATOM      4  C2  UNK A          40.086  13.098   0.310  0.00  0.00     0.096 A 
ATOM      5  C3  UNK A          40.261  15.157  -0.850  0.00  0.00     0.123 A 
ATOM      6  C5  UNK A          41.127  14.677  -1.762  0.00  0.00     0.152 A 
ATOM      7  C6  UNK A          41.544  13.257  -1.675  0.00  0.00     0.223 A 
ATOM      8  C7  UNK A          41.294  11.126  -0.404  0.00  0.00     0.085 A 
ATOM      9  C8  UNK A          39.528  12.377   1.366  0.00  0.00     0.075 A 
ATOM     10  C9  UNK A          39.851  11.031   1.536  0.00  0.00     0.071 A 
ATOM     11  C11 UNK A          40.734  10.408   0.652  0.00  0.00     0.074 A 
ENDROOT
BRANCH   5  12
ATOM     12  C4  UNK A          39.798  16.556  -0.858  0.00  0.00     0.004 A 
ATOM     13  C10 UNK A          38.984  17.028   0.172  0.00  0.00     0.053 A 
ATOM     14  C13 UNK A          38.547  18.352   0.165  0.00  0.00     0.099 A 
ATOM     15  C15 UNK A          38.923  19.205  -0.873  0.00  0.00     0.098 A 
ATOM     16  C14 UNK A          39.737  18.734  -1.903  0.00  0.00     0.040 A 
ATOM     17  C12 UNK A          40.175  17.409  -1.895  0.00  0.00     0.017 A 
BRANCH  14  18
ATOM     18  O6  UNK A          37.752  18.801   1.175  0.00  0.00    -0.358 OA
ATOM     19  H9  UNK A          38.179  19.551   1.621  0.00  0.00     0.217 HD
ENDBRANCH  14  18
BRANCH  15  20
ATOM     20  O7  UNK A          38.504  20.501  -0.890  0.00  0.00    -0.358 OA
ATOM     21  H10 UNK A          39.224  21.082  -0.598  0.00  0.00     0.217 HD
ENDBRANCH  15  20
ENDBRANCH   5  12
BRANCH   6  22
ATOM     22  O2  UNK A          41.662  15.449  -2.771  0.00  0.00    -0.355 OA
ATOM     23  H6  UNK A          42.391  15.987  -2.423  0.00  0.00     0.218 HD
ENDBRANCH   6  22
BRANCH   8  24
ATOM     24  O3  UNK A          42.149  10.469  -1.237  0.00  0.00    -0.360 OA
ATOM     25  H7  UNK A          42.152   9.519  -1.042  0.00  0.00     0.217 HD
ENDBRANCH   8  24
BRANCH  10  26
ATOM     26  O5  UNK A          39.308  10.326   2.564  0.00  0.00    -0.361 OA
ATOM     27  H8  UNK A          39.779  10.550   3.385  0.00  0.00     0.217 HD
ENDBRANCH  10  26
TORSDOF 6
ENDMDL
MODEL 3
REMARK VINA RESULT:      -7.0      2.072      3.085
REMARK  6 active torsions:
REMARK  status: ('A' for Active; 'I' for Inactive)
REMARK    1  A    between atoms: O2_2  and  C5_12 
REMARK    2  A    between atoms: O3_3  and  C7_14 
REMARK    3  A    between atoms: O5_5  and  C9_16 
REMARK    4  A    between atoms: O6_6  and  C13_20 
REMARK    5  A    between atoms: O7_7  and  C15_22 
REMARK    6  A    between atoms: C3_10  and  C4_11 
ROOT
ATOM      1  O1  UNK A          39.301  17.443  -0.154  0.00  0.00    -0.306 OA
ATOM      2  O4  UNK A          40.636  18.960  -3.693  0.00  0.00    -0.284 OA
ATOM      3  C1  UNK A          39.806  19.380  -1.526  0.00  0.00     0.084 A 
ATOM      4  C2  UNK A          39.359  18.799  -0.341  0.00  0.00     0.096 A 
ATOM      5  C3  UNK A          39.719  16.614  -1.184  0.00  0.00     0.123 A 
ATOM      6  C5  UNK A          40.164  17.047  -2.378  0.00  0.00     0.152 A 
ATOM      7  C6  UNK A          40.239  18.507  -2.628  0.00  0.00     0.223 A 
ATOM      8  C7  UNK A          39.841  20.770  -1.661  0.00  0.00     0.085 A 
ATOM      9  C8  UNK A          38.941  19.607   0.717  0.00  0.00     0.075 A 
ATOM     10  C9  UNK A          38.975  20.995   0.587  0.00  0.00     0.071 A 
ATOM     11  C11 UNK A          39.424  21.575  -0.601  0.00  0.00     0.074 A 
ENDROOT
BRANCH   5  12
ATOM     12  C4  UNK A          39.607  15.183  -0.853  0.00  0.00     0.004 A 
ATOM     13  C10 UNK A          40.655  14.532  -0.203  0.00  0.00     0.053 A 
ATOM     14  C13 UNK A          40.548  13.178   0.112  0.00  0.00     0.099 A 
ATOM     15  C15 UNK A          39.392  12.473  -0.225  0.00  0.00     0.098 A 
ATOM     16  C14 UNK A          38.343  13.124  -0.875  0.00  0.00     0.040 A 
ATOM     17  C12 UNK A          38.450  14.479  -1.189  0.00  0.00     0.017 A 
BRANCH  14  18
ATOM     18  O6  UNK A          41.579  12.552   0.745  0.00  0.00    -0.358 OA
ATOM     19  H9  UNK A          42.026  13.176   1.339  0.00  0.00     0.217 HD
ENDBRANCH  14  18
BRANCH  15  20
ATOM     20  O7  UNK A          39.274  11.150   0.078  0.00  0.00    -0.358 OA
ATOM     21  H10 UNK A          38.404  10.980   0.472  0.00  0.00     0.217 HD
ENDBRANCH  15  20
ENDBRANCH   5  12
BRANCH   6  22
ATOM     22  O2  UNK A          40.542  16.196  -3.394  0.00  0.00    -0.355 OA
ATOM     23  H6  UNK A          40.431  16.636  -4.252  0.00  0.00     0.218 HD
ENDBRANCH   6  22
BRANCH   8  24
ATOM     24  O3  UNK A          40.270  21.388  -2.797  0.00  0.00    -0.360 OA
ATOM     25  H7  UNK A          39.821  22.240  -2.911  0.00  0.00     0.217 HD
ENDBRANCH   8  24
BRANCH  10  26
ATOM     26  O5  UNK A          38.568  21.784   1.618  0.00  0.00    -0.361 OA
ATOM     27  H8  UNK A          38.047  21.248   2.240  0.00  0.00     0.217 HD
ENDBRANCH  10  26
TORSDOF 6
ENDMDL
MODEL 4
REMARK VINA RESULT:      -6.8     15.032     15.994
REMARK  6 active torsions:
REMARK  status: ('A' for Active; 'I' for Inactive)
REMARK    1  A    between atoms: O2_2  and  C5_12 
REMARK    2  A    between atoms: O3_3  and  C7_14 
REMARK    3  A    between atoms: O5_5  and  C9_16 
REMARK    4  A    between atoms: O6_6  and  C13_20 
REMARK    5  A    between atoms: O7_7  and  C15_22 
REMARK    6  A    between atoms: C3_10  and  C4_11 
ROOT
ATOM      1  O1  UNK A          43.234   2.010   7.847  0.00  0.00    -0.306 OA
ATOM      2  O4  UNK A          43.755   5.220  10.303  0.00  0.00    -0.284 OA
ATOM      3  C1  UNK A          44.716   3.680   8.798  0.00  0.00     0.084 A 
ATOM      4  C2  UNK A          44.472   2.581   7.976  0.00  0.00     0.096 A 
ATOM      5  C3  UNK A          42.175   2.558   8.555  0.00  0.00     0.123 A 
ATOM      6  C5  UNK A          42.277   3.611   9.386  0.00  0.00     0.152 A 
ATOM      7  C6  UNK A          43.600   4.258   9.562  0.00  0.00     0.223 A 
ATOM      8  C7  UNK A          46.001   4.219   8.891  0.00  0.00     0.085 A 
ATOM      9  C8  UNK A          45.516   2.013   7.244  0.00  0.00     0.075 A 
ATOM     10  C9  UNK A          46.800   2.549   7.334  0.00  0.00     0.071 A 
ATOM     11  C11 UNK A          47.042   3.650   8.157  0.00  0.00     0.074 A 
ENDROOT
BRANCH   5  12
ATOM     12  C4  UNK A          40.903   1.851   8.326  0.00  0.00     0.004 A 
ATOM     13  C10 UNK A          40.134   2.143   7.199  0.00  0.00     0.053 A 
ATOM     14  C13 UNK A          38.931   1.473   6.982  0.00  0.00     0.099 A 
ATOM     15  C15 UNK A          38.494   0.511   7.894  0.00  0.00     0.098 A 
ATOM     16  C14 UNK A          39.262   0.219   9.021  0.00  0.00     0.040 A 
ATOM     17  C12 UNK A          40.466   0.889   9.237  0.00  0.00     0.017 A 
BRANCH  14  18
ATOM     18  O6  UNK A          38.188   1.767   5.879  0.00  0.00    -0.358 OA
ATOM     19  H9  UNK A          38.002   0.954   5.382  0.00  0.00     0.217 HD
ENDBRANCH  14  18
BRANCH  15  20
ATOM     20  O7  UNK A          37.321  -0.151   7.692  0.00  0.00    -0.358 OA
ATOM     21  H10 UNK A          36.644   0.188   8.299  0.00  0.00     0.217 HD
ENDBRANCH  15  20
ENDBRANCH   5  12
BRANCH   6  22
ATOM     22  O2  UNK A          41.211   4.112  10.101  0.00  0.00    -0.355 OA
ATOM     23  H6  UNK A          40.533   4.446   9.492  0.00  0.00     0.218 HD
ENDBRANCH   6  22
BRANCH   8  24
ATOM     24  O3  UNK A          46.292   5.293   9.679  0.00  0.00    -0.360 OA
ATOM     25  H7  UNK A          47.230   5.525   9.605  0.00  0.00     0.217 HD
ENDBRANCH   8  24
BRANCH  10  26
ATOM     26  O5  UNK A          47.818   1.997   6.620  0.00  0.00    -0.361 OA
ATOM     27  H8  UNK A          47.849   2.411   5.741  0.00  0.00     0.217 HD
ENDBRANCH  10  26
TORSDOF 6
ENDMDL
MODEL 5
REMARK VINA RESULT:      -6.7      1.874      2.663
REMARK  6 active torsions:
REMARK  status: ('A' for Active; 'I' for Inactive)
REMARK    1  A    between atoms: O2_2  and  C5_12 
REMARK    2  A    between atoms: O3_3  and  C7_14 
REMARK    3  A    between atoms: O5_5  and  C9_16 
REMARK    4  A    between atoms: O6_6  and  C13_20 
REMARK    5  A    between atoms: O7_7  and  C15_22 
REMARK    6  A    between atoms: C3_10  and  C4_11 
ROOT
ATOM      1  O1  UNK A          39.401  16.343  -0.221  0.00  0.00    -0.306 OA
ATOM      2  O4  UNK A          40.597  18.765  -3.272  0.00  0.00    -0.284 OA
ATOM      3  C1  UNK A          39.425  18.546  -1.237  0.00  0.00     0.084 A 
ATOM      4  C2  UNK A          39.047  17.666  -0.225  0.00  0.00     0.096 A 
ATOM      5  C3  UNK A          40.180  15.862  -1.263  0.00  0.00     0.123 A 
ATOM      6  C5  UNK A          40.603  16.604  -2.303  0.00  0.00     0.152 A 
ATOM      7  C6  UNK A          40.240  18.041  -2.352  0.00  0.00     0.223 A 
ATOM      8  C7  UNK A          39.033  19.886  -1.189  0.00  0.00     0.085 A 
ATOM      9  C8  UNK A          38.272  18.122   0.842  0.00  0.00     0.075 A 
ATOM     10  C9  UNK A          37.879  19.459   0.894  0.00  0.00     0.071 A 
ATOM     11  C11 UNK A          38.259  20.339  -0.121  0.00  0.00     0.074 A 
ENDROOT
BRANCH   5  12
ATOM     12  C4  UNK A          40.488  14.427  -1.136  0.00  0.00     0.004 A 
ATOM     13  C10 UNK A          39.611  13.581  -0.458  0.00  0.00     0.053 A 
ATOM     14  C13 UNK A          39.902  12.223  -0.340  0.00  0.00     0.099 A 
ATOM     15  C15 UNK A          41.074  11.710  -0.898  0.00  0.00     0.098 A 
ATOM     16  C14 UNK A          41.952  12.555  -1.576  0.00  0.00     0.040 A 
ATOM     17  C12 UNK A          41.659  13.914  -1.695  0.00  0.00     0.017 A 
BRANCH  14  18
ATOM     18  O6  UNK A          39.039  11.406   0.325  0.00  0.00    -0.358 OA
ATOM     19  H9  UNK A          39.343  10.486   0.264  0.00  0.00     0.217 HD
ENDBRANCH  14  18
BRANCH  15  20
ATOM     20  O7  UNK A          41.369  10.384  -0.790  0.00  0.00    -0.358 OA
ATOM     21  H10 UNK A          42.292  10.276  -0.512  0.00  0.00     0.217 HD
ENDBRANCH  15  20
ENDBRANCH   5  12
BRANCH   6  22
ATOM     22  O2  UNK A          41.349  16.088  -3.340  0.00  0.00    -0.355 OA
ATOM     23  H6  UNK A          40.760  15.710  -4.014  0.00  0.00     0.218 HD
ENDBRANCH   6  22
BRANCH   8  24
ATOM     24  O3  UNK A          39.375  20.787  -2.152  0.00  0.00    -0.360 OA
ATOM     25  H7  UNK A          39.858  20.351  -2.870  0.00  0.00     0.217 HD
ENDBRANCH   8  24
BRANCH  10  26
ATOM     26  O5  UNK A          37.123  19.906   1.934  0.00  0.00    -0.361 OA
ATOM     27  H8  UNK A          37.564  19.671   2.768  0.00  0.00     0.217 HD
ENDBRANCH  10  26
TORSDOF 6
ENDMDL
MODEL 6
REMARK VINA RESULT:      -6.6     14.841     15.592
REMARK  6 active torsions:
REMARK  status: ('A' for Active; 'I' for Inactive)
REMARK    1  A    between atoms: O2_2  and  C5_12 
REMARK    2  A    between atoms: O3_3  and  C7_14 
REMARK    3  A    between atoms: O5_5  and  C9_16 
REMARK    4  A    between atoms: O6_6  and  C13_20 
REMARK    5  A    between atoms: O7_7  and  C15_22 
REMARK    6  A    between atoms: C3_10  and  C4_11 
ROOT
ATOM      1  O1  UNK A          42.424   3.345   9.032  0.00  0.00    -0.306 OA
ATOM      2  O4  UNK A          46.044   2.339   7.451  0.00  0.00    -0.284 OA
ATOM      3  C1  UNK A          44.796   3.808   8.811  0.00  0.00     0.084 A 
ATOM      4  C2  UNK A          43.532   4.100   9.318  0.00  0.00     0.096 A 
ATOM      5  C3  UNK A          42.572   2.236   8.213  0.00  0.00     0.123 A 
ATOM      6  C5  UNK A          43.734   1.852   7.653  0.00  0.00     0.152 A 
ATOM      7  C6  UNK A          44.958   2.641   7.930  0.00  0.00     0.223 A 
ATOM      8  C7  UNK A          45.890   4.615   9.136  0.00  0.00     0.085 A 
ATOM      9  C8  UNK A          43.352   5.203  10.154  0.00  0.00     0.075 A 
ATOM     10  C9  UNK A          44.442   6.011  10.481  0.00  0.00     0.071 A 
ATOM     11  C11 UNK A          45.708   5.716   9.972  0.00  0.00     0.074 A 
ENDROOT
BRANCH   5  12
ATOM     12  C4  UNK A          41.308   1.515   7.987  0.00  0.00     0.004 A 
ATOM     13  C10 UNK A          40.354   2.034   7.111  0.00  0.00     0.053 A 
ATOM     14  C13 UNK A          39.158   1.351   6.896  0.00  0.00     0.099 A 
ATOM     15  C15 UNK A          38.914   0.148   7.559  0.00  0.00     0.098 A 
ATOM     16  C14 UNK A          39.867  -0.372   8.435  0.00  0.00     0.040 A 
ATOM     17  C12 UNK A          41.064   0.311   8.649  0.00  0.00     0.017 A 
BRANCH  14  18
ATOM     18  O6  UNK A          38.234   1.868   6.039  0.00  0.00    -0.358 OA
ATOM     19  H9  UNK A          38.469   1.640   5.125  0.00  0.00     0.217 HD
ENDBRANCH  14  18
BRANCH  15  20
ATOM     20  O7  UNK A          37.749  -0.530   7.356  0.00  0.00    -0.358 OA
ATOM     21  H10 UNK A          37.375  -0.801   8.209  0.00  0.00     0.217 HD
ENDBRANCH  15  20
ENDBRANCH   5  12
BRANCH   6  22
ATOM     22  O2  UNK A          43.842   0.762   6.816  0.00  0.00    -0.355 OA
ATOM     23  H6  UNK A          44.298   0.038   7.274  0.00  0.00     0.218 HD
ENDBRANCH   6  22
BRANCH   8  24
ATOM     24  O3  UNK A          47.146   4.374   8.667  0.00  0.00    -0.360 OA
ATOM     25  H7  UNK A          47.778   5.004   9.047  0.00  0.00     0.217 HD
ENDBRANCH   8  24
BRANCH  10  26
ATOM     26  O5  UNK A          44.269   7.086  11.296  0.00  0.00    -0.361 OA
ATOM     27  H8  UNK A          43.427   6.990  11.773  0.00  0.00     0.217 HD
ENDBRANCH  10  26
TORSDOF 6
ENDMDL
MODEL 7
REMARK VINA RESULT:      -6.5     15.108     18.071
REMARK  6 active torsions:
REMARK  status: ('A' for Active; 'I' for Inactive)
REMARK    1  A    between atoms: O2_2  and  C5_12 
REMARK    2  A    between atoms: O3_3  and  C7_14 
REMARK    3  A    between atoms: O5_5  and  C9_16 
REMARK    4  A    between atoms: O6_6  and  C13_20 
REMARK    5  A    between atoms: O7_7  and  C15_22 
REMARK    6  A    between atoms: C3_10  and  C4_11 
ROOT
ATOM      1  O1  UNK A          39.711   0.354   8.617  0.00  0.00    -0.306 OA
ATOM      2  O4  UNK A          43.470  -0.760   9.732  0.00  0.00    -0.284 OA
ATOM      3  C1  UNK A          41.890   0.974   9.488  0.00  0.00     0.084 A 
ATOM      4  C2  UNK A          40.593   1.291   9.090  0.00  0.00     0.096 A 
ATOM      5  C3  UNK A          40.125  -0.967   8.544  0.00  0.00     0.123 A 
ATOM      6  C5  UNK A          41.351  -1.402   8.889  0.00  0.00     0.152 A 
ATOM      7  C6  UNK A          42.340  -0.423   9.402  0.00  0.00     0.223 A 
ATOM      8  C7  UNK A          42.745   1.973   9.962  0.00  0.00     0.085 A 
ATOM      9  C8  UNK A          40.143   2.610   9.161  0.00  0.00     0.075 A 
ATOM     10  C9  UNK A          40.995   3.610   9.633  0.00  0.00     0.071 A 
ATOM     11  C11 UNK A          42.293   3.290  10.032  0.00  0.00     0.074 A 
ENDROOT
BRANCH   5  12
ATOM     12  C4  UNK A          39.084  -1.868   8.021  0.00  0.00     0.004 A 
ATOM     13  C10 UNK A          39.356  -2.690   6.926  0.00  0.00     0.053 A 
ATOM     14  C13 UNK A          38.371  -3.543   6.432  0.00  0.00     0.099 A 
ATOM     15  C15 UNK A          37.111  -3.574   7.031  0.00  0.00     0.098 A 
ATOM     16  C14 UNK A          36.838  -2.753   8.124  0.00  0.00     0.040 A 
ATOM     17  C12 UNK A          37.824  -1.900   8.620  0.00  0.00     0.017 A 
BRANCH  14  18
ATOM     18  O6  UNK A          38.648  -4.340   5.363  0.00  0.00    -0.358 OA
ATOM     19  H9  UNK A          39.487  -4.066   4.958  0.00  0.00     0.217 HD
ENDBRANCH  14  18
BRANCH  15  20
ATOM     20  O7  UNK A          36.140  -4.405   6.557  0.00  0.00    -0.358 OA
ATOM     21  H10 UNK A          36.440  -4.824   5.735  0.00  0.00     0.217 HD
ENDBRANCH  15  20
ENDBRANCH   5  12
BRANCH   6  22
ATOM     22  O2  UNK A          41.742  -2.718   8.774  0.00  0.00    -0.355 OA
ATOM     23  H6  UNK A          42.450  -2.909   9.411  0.00  0.00     0.218 HD
ENDBRANCH   6  22
BRANCH   8  24
ATOM     24  O3  UNK A          44.022   1.716  10.363  0.00  0.00    -0.360 OA
ATOM     25  H7  UNK A          44.024   1.141  11.143  0.00  0.00     0.217 HD
ENDBRANCH   8  24
BRANCH  10  26
ATOM     26  O5  UNK A          40.558   4.896   9.703  0.00  0.00    -0.361 OA
ATOM     27  H8  UNK A          40.778   5.350   8.871  0.00  0.00     0.217 HD
ENDBRANCH  10  26
TORSDOF 6
ENDMDL
MODEL 8
REMARK VINA RESULT:      -6.5     13.385     15.517
REMARK  6 active torsions:
REMARK  status: ('A' for Active; 'I' for Inactive)
REMARK    1  A    between atoms: O2_2  and  C5_12 
REMARK    2  A    between atoms: O3_3  and  C7_14 
REMARK    3  A    between atoms: O5_5  and  C9_16 
REMARK    4  A    between atoms: O6_6  and  C13_20 
REMARK    5  A    between atoms: O7_7  and  C15_22 
REMARK    6  A    between atoms: C3_10  and  C4_11 
ROOT
ATOM      1  O1  UNK A          42.371  21.260  12.003  0.00  0.00    -0.306 OA
ATOM      2  O4  UNK A          45.615  18.967  11.093  0.00  0.00    -0.284 OA
ATOM      3  C1  UNK A          43.388  19.061  11.863  0.00  0.00     0.084 A 
ATOM      4  C2  UNK A          42.314  19.900  12.157  0.00  0.00     0.096 A 
ATOM      5  C3  UNK A          43.541  21.823  11.520  0.00  0.00     0.123 A 
ATOM      6  C5  UNK A          44.650  21.128  11.206  0.00  0.00     0.152 A 
ATOM      7  C6  UNK A          44.637  19.653  11.363  0.00  0.00     0.223 A 
ATOM      8  C7  UNK A          43.273  17.680  12.042  0.00  0.00     0.085 A 
ATOM      9  C8  UNK A          41.119  19.361  12.635  0.00  0.00     0.075 A 
ATOM     10  C9  UNK A          41.001  17.983  12.815  0.00  0.00     0.071 A 
ATOM     11  C11 UNK A          42.076  17.145  12.519  0.00  0.00     0.074 A 
ENDROOT
BRANCH   5  12
ATOM     12  C4  UNK A          43.468  23.290  11.401  0.00  0.00     0.004 A 
ATOM     13  C10 UNK A          43.677  23.903  10.165  0.00  0.00     0.053 A 
ATOM     14  C13 UNK A          43.606  25.290  10.053  0.00  0.00     0.099 A 
ATOM     15  C15 UNK A          43.327  26.068  11.177  0.00  0.00     0.098 A 
ATOM     16  C14 UNK A          43.117  25.456  12.413  0.00  0.00     0.040 A 
ATOM     17  C12 UNK A          43.188  24.067  12.525  0.00  0.00     0.017 A 
BRANCH  14  18
ATOM     18  O6  UNK A          43.814  25.877   8.841  0.00  0.00    -0.358 OA
ATOM     19  H9  UNK A          42.999  26.313   8.544  0.00  0.00     0.217 HD
ENDBRANCH  14  18
BRANCH  15  20
ATOM     20  O7  UNK A          43.253  27.425  11.080  0.00  0.00    -0.358 OA
ATOM     21  H10 UNK A          43.977  27.753  10.523  0.00  0.00     0.217 HD
ENDBRANCH  15  20
ENDBRANCH   5  12
BRANCH   6  22
ATOM     22  O2  UNK A          45.810  21.722  10.759  0.00  0.00    -0.355 OA
ATOM     23  H6  UNK A          46.135  22.352  11.423  0.00  0.00     0.218 HD
ENDBRANCH   6  22
BRANCH   8  24
ATOM     24  O3  UNK A          44.291  16.817  11.769  0.00  0.00    -0.360 OA
ATOM     25  H7  UNK A          44.760  16.576  12.583  0.00  0.00     0.217 HD
ENDBRANCH   8  24
BRANCH  10  26
ATOM     26  O5  UNK A          39.836  17.456  13.281  0.00  0.00    -0.361 OA
ATOM     27  H8  UNK A          39.337  18.152  13.743  0.00  0.00     0.217 HD
ENDBRANCH  10  26
TORSDOF 6
ENDMDL
MODEL 9
REMARK VINA RESULT:      -6.4     24.945     28.207
REMARK  6 active torsions:
REMARK  status: ('A' for Active; 'I' for Inactive)
REMARK    1  A    between atoms: O2_2  and  C5_12 
REMARK    2  A    between atoms: O3_3  and  C7_14 
REMARK    3  A    between atoms: O5_5  and  C9_16 
REMARK    4  A    between atoms: O6_6  and  C13_20 
REMARK    5  A    between atoms: O7_7  and  C15_22 
REMARK    6  A    between atoms: C3_10  and  C4_11 
ROOT
ATOM      1  O1  UNK A          48.019 -11.155  -3.985  0.00  0.00    -0.306 OA
ATOM      2  O4  UNK A          50.560 -12.305  -6.957  0.00  0.00    -0.284 OA
ATOM      3  C1  UNK A          49.858 -10.612  -5.472  0.00  0.00     0.084 A 
ATOM      4  C2  UNK A          48.961 -10.280  -4.460  0.00  0.00     0.096 A 
ATOM      5  C3  UNK A          47.968 -12.430  -4.527  0.00  0.00     0.123 A 
ATOM      6  C5  UNK A          48.770 -12.873  -5.513  0.00  0.00     0.152 A 
ATOM      7  C6  UNK A          49.800 -11.959  -6.061  0.00  0.00     0.223 A 
ATOM      8  C7  UNK A          50.796  -9.677  -5.917  0.00  0.00     0.085 A 
ATOM      9  C8  UNK A          48.994  -9.008  -3.887  0.00  0.00     0.075 A 
ATOM     10  C9  UNK A          49.929  -8.072  -4.329  0.00  0.00     0.071 A 
ATOM     11  C11 UNK A          50.828  -8.407  -5.342  0.00  0.00     0.074 A 
ENDROOT
BRANCH   5  12
ATOM     12  C4  UNK A          46.914 -13.268  -3.928  0.00  0.00     0.004 A 
ATOM     13  C10 UNK A          45.634 -13.283  -4.483  0.00  0.00     0.053 A 
ATOM     14  C13 UNK A          44.637 -14.077  -3.917  0.00  0.00     0.099 A 
ATOM     15  C15 UNK A          44.919 -14.855  -2.794  0.00  0.00     0.098 A 
ATOM     16  C14 UNK A          46.199 -14.840  -2.239  0.00  0.00     0.040 A 
ATOM     17  C12 UNK A          47.196 -14.047  -2.805  0.00  0.00     0.017 A 
BRANCH  14  18
ATOM     18  O6  UNK A          43.391 -14.083  -4.467  0.00  0.00    -0.358 OA
ATOM     19  H9  UNK A          43.291 -13.323  -5.063  0.00  0.00     0.217 HD
ENDBRANCH  14  18
BRANCH  15  20
ATOM     20  O7  UNK A          43.954 -15.636  -2.233  0.00  0.00    -0.358 OA
ATOM     21  H10 UNK A          43.117 -15.147  -2.196  0.00  0.00     0.217 HD
ENDBRANCH  15  20
ENDBRANCH   5  12
BRANCH   6  22
ATOM     22  O2  UNK A          48.671 -14.137  -6.053  0.00  0.00    -0.355 OA
ATOM     23  H6  UNK A          48.874 -14.107  -7.002  0.00  0.00     0.218 HD
ENDBRANCH   6  22
BRANCH   8  24
ATOM     24  O3  UNK A          51.696  -9.951  -6.904  0.00  0.00    -0.360 OA
ATOM     25  H7  UNK A          52.591 -10.017  -6.539  0.00  0.00     0.217 HD
ENDBRANCH   8  24
BRANCH  10  26
ATOM     26  O5  UNK A          49.964  -6.832  -3.771  0.00  0.00    -0.361 OA
ATOM     27  H8  UNK A          50.888  -6.599  -3.575  0.00  0.00     0.217 HD
ENDBRANCH  10  26
TORSDOF 6
ENDMDL
MODEL 10
REMARK VINA RESULT:      -6.4     13.139     15.697
REMARK  6 active torsions:
REMARK  status: ('A' for Active; 'I' for Inactive)
REMARK    1  A    between atoms: O2_2  and  C5_12 
REMARK    2  A    between atoms: O3_3  and  C7_14 
REMARK    3  A    between atoms: O5_5  and  C9_16 
REMARK    4  A    between atoms: O6_6  and  C13_20 
REMARK    5  A    between atoms: O7_7  and  C15_22 
REMARK    6  A    between atoms: C3_10  and  C4_11 
ROOT
ATOM      1  O1  UNK A          44.478  21.314  11.732  0.00  0.00    -0.306 OA
ATOM      2  O4  UNK A          41.207  18.914  11.342  0.00  0.00    -0.284 OA
ATOM      3  C1  UNK A          43.525  19.082  11.742  0.00  0.00     0.084 A 
ATOM      4  C2  UNK A          44.604  19.956  11.863  0.00  0.00     0.096 A 
ATOM      5  C3  UNK A          43.221  21.841  11.481  0.00  0.00     0.123 A 
ATOM      6  C5  UNK A          42.102  21.108  11.335  0.00  0.00     0.152 A 
ATOM      7  C6  UNK A          42.191  19.633  11.463  0.00  0.00     0.223 A 
ATOM      8  C7  UNK A          43.714  17.705  11.884  0.00  0.00     0.085 A 
ATOM      9  C8  UNK A          45.881  19.457  12.124  0.00  0.00     0.075 A 
ATOM     10  C9  UNK A          46.073  18.082  12.267  0.00  0.00     0.071 A 
ATOM     11  C11 UNK A          44.991  17.209  12.146  0.00  0.00     0.074 A 
ENDROOT
BRANCH   5  12
ATOM     12  C4  UNK A          43.225  23.310  11.364  0.00  0.00     0.004 A 
ATOM     13  C10 UNK A          43.534  23.913  10.144  0.00  0.00     0.053 A 
ATOM     14  C13 UNK A          43.537  25.302  10.033  0.00  0.00     0.099 A 
ATOM     15  C15 UNK A          43.233  26.091  11.143  0.00  0.00     0.098 A 
ATOM     16  C14 UNK A          42.925  25.489  12.363  0.00  0.00     0.040 A 
ATOM     17  C12 UNK A          42.921  24.099  12.474  0.00  0.00     0.017 A 
BRANCH  14  18
ATOM     18  O6  UNK A          43.841  25.879   8.837  0.00  0.00    -0.358 OA
ATOM     19  H9  UNK A          44.330  25.249   8.284  0.00  0.00     0.217 HD
ENDBRANCH  14  18
BRANCH  15  20
ATOM     20  O7  UNK A          43.232  27.450  11.047  0.00  0.00    -0.358 OA
ATOM     21  H10 UNK A          43.174  27.841  11.932  0.00  0.00     0.217 HD
ENDBRANCH  15  20
ENDBRANCH   5  12
BRANCH   6  22
ATOM     22  O2  UNK A          40.871  21.661  11.054  0.00  0.00    -0.355 OA
ATOM     23  H6  UNK A          40.707  21.631  10.097  0.00  0.00     0.218 HD
ENDBRANCH   6  22
BRANCH   8  24
ATOM     24  O3  UNK A          42.694  16.808  11.775  0.00  0.00    -0.360 OA
ATOM     25  H7  UNK A          41.907  17.232  11.402  0.00  0.00     0.217 HD
ENDBRANCH   8  24
BRANCH  10  26
ATOM     26  O5  UNK A          47.317  17.594  12.523  0.00  0.00    -0.361 OA
ATOM     27  H8  UNK A          47.914  17.856  11.802  0.00  0.00     0.217 HD
ENDBRANCH  10  26
TORSDOF 6
ENDMDL
MODEL 11
REMARK VINA RESULT:      -6.4     15.985     18.387
REMARK  6 active torsions:
REMARK  status: ('A' for Active; 'I' for Inactive)
REMARK    1  A    between atoms: O2_2  and  C5_12 
REMARK    2  A    between atoms: O3_3  and  C7_14 
REMARK    3  A    between atoms: O5_5  and  C9_16 
REMARK    4  A    between atoms: O6_6  and  C13_20 
REMARK    5  A    between atoms: O7_7  and  C15_22 
REMARK    6  A    between atoms: C3_10  and  C4_11 
ROOT
ATOM      1  O1  UNK A          45.219   0.165   9.937  0.00  0.00    -0.306 OA
ATOM      2  O4  UNK A          44.386   2.239   6.529  0.00  0.00    -0.284 OA
ATOM      3  C1  UNK A          46.002   1.542   8.098  0.00  0.00     0.084 A 
ATOM      4  C2  UNK A          46.221   0.817   9.268  0.00  0.00     0.096 A 
ATOM      5  C3  UNK A          43.934   0.217   9.418  0.00  0.00     0.123 A 
ATOM      6  C5  UNK A          43.588   0.888   8.304  0.00  0.00     0.152 A 
ATOM      7  C6  UNK A          44.639   1.613   7.550  0.00  0.00     0.223 A 
ATOM      8  C7  UNK A          47.064   2.189   7.461  0.00  0.00     0.085 A 
ATOM      9  C8  UNK A          47.505   0.737   9.810  0.00  0.00     0.075 A 
ATOM     10  C9  UNK A          48.568   1.381   9.175  0.00  0.00     0.071 A 
ATOM     11  C11 UNK A          48.346   2.106   8.003  0.00  0.00     0.074 A 
ENDROOT
BRANCH   5  12
ATOM     12  C4  UNK A          42.954  -0.525  10.231  0.00  0.00     0.004 A 
ATOM     13  C10 UNK A          42.605  -1.830   9.885  0.00  0.00     0.053 A 
ATOM     14  C13 UNK A          41.679  -2.533  10.655  0.00  0.00     0.099 A 
ATOM     15  C15 UNK A          41.100  -1.929  11.772  0.00  0.00     0.098 A 
ATOM     16  C14 UNK A          41.449  -0.624  12.118  0.00  0.00     0.040 A 
ATOM     17  C12 UNK A          42.376   0.079  11.348  0.00  0.00     0.017 A 
BRANCH  14  18
ATOM     18  O6  UNK A          41.345  -3.806  10.307  0.00  0.00    -0.358 OA
ATOM     19  H9  UNK A          41.033  -4.289  11.089  0.00  0.00     0.217 HD
ENDBRANCH  14  18
BRANCH  15  20
ATOM     20  O7  UNK A          40.195  -2.605  12.533  0.00  0.00    -0.358 OA
ATOM     21  H10 UNK A          39.933  -2.061  13.292  0.00  0.00     0.217 HD
ENDBRANCH  15  20
ENDBRANCH   5  12
BRANCH   6  22
ATOM     22  O2  UNK A          42.295   0.948   7.832  0.00  0.00    -0.355 OA
ATOM     23  H6  UNK A          42.300   1.083   6.870  0.00  0.00     0.218 HD
ENDBRANCH   6  22
BRANCH   8  24
ATOM     24  O3  UNK A          46.904   2.910   6.316  0.00  0.00    -0.360 OA
ATOM     25  H7  UNK A          46.354   3.690   6.479  0.00  0.00     0.217 HD
ENDBRANCH   8  24
BRANCH  10  26
ATOM     26  O5  UNK A          49.820   1.303   9.701  0.00  0.00    -0.361 OA
ATOM     27  H8  UNK A          50.087   2.185  10.014  0.00  0.00     0.217 HD
ENDBRANCH  10  26
TORSDOF 6
ENDMDL
MODEL 12
REMARK VINA RESULT:      -6.3     15.372     17.328
REMARK  6 active torsions:
REMARK  status: ('A' for Active; 'I' for Inactive)
REMARK    1  A    between atoms: O2_2  and  C5_12 
REMARK    2  A    between atoms: O3_3  and  C7_14 
REMARK    3  A    between atoms: O5_5  and  C9_16 
REMARK    4  A    between atoms: O6_6  and  C13_20 
REMARK    5  A    between atoms: O7_7  and  C15_22 
REMARK    6  A    between atoms: C3_10  and  C4_11 
ROOT
ATOM      1  O1  UNK A          44.211   1.639   7.541  0.00  0.00    -0.306 OA
ATOM      2  O4  UNK A          45.736   0.791  11.224  0.00  0.00    -0.284 OA
ATOM      3  C1  UNK A          46.136   1.511   9.014  0.00  0.00     0.084 A 
ATOM      4  C2  UNK A          45.553   1.783   7.778  0.00  0.00     0.096 A 
ATOM      5  C3  UNK A          43.397   1.216   8.581  0.00  0.00     0.123 A 
ATOM      6  C5  UNK A          43.835   0.913   9.817  0.00  0.00     0.152 A 
ATOM      7  C6  UNK A          45.280   1.050  10.118  0.00  0.00     0.223 A 
ATOM      8  C7  UNK A          47.511   1.675   9.197  0.00  0.00     0.085 A 
ATOM      9  C8  UNK A          46.345   2.220   6.715  0.00  0.00     0.075 A 
ATOM     10  C9  UNK A          47.718   2.385   6.893  0.00  0.00     0.071 A 
ATOM     11  C11 UNK A          48.300   2.113   8.133  0.00  0.00     0.074 A 
ENDROOT
BRANCH   5  12
ATOM     12  C4  UNK A          41.980   1.103   8.193  0.00  0.00     0.004 A 
ATOM     13  C10 UNK A          41.324  -0.123   8.294  0.00  0.00     0.053 A 
ATOM     14  C13 UNK A          39.982  -0.229   7.928  0.00  0.00     0.099 A 
ATOM     15  C15 UNK A          39.297   0.892   7.458  0.00  0.00     0.098 A 
ATOM     16  C14 UNK A          39.953   2.118   7.357  0.00  0.00     0.040 A 
ATOM     17  C12 UNK A          41.295   2.225   7.724  0.00  0.00     0.017 A 
BRANCH  14  18
ATOM     18  O6  UNK A          39.352  -1.432   8.030  0.00  0.00    -0.358 OA
ATOM     19  H9  UNK A          38.455  -1.364   7.666  0.00  0.00     0.217 HD
ENDBRANCH  14  18
BRANCH  15  20
ATOM     20  O7  UNK A          37.986   0.801   7.099  0.00  0.00    -0.358 OA
ATOM     21  H10 UNK A          37.900   0.923   6.140  0.00  0.00     0.217 HD
ENDBRANCH  15  20
ENDBRANCH   5  12
BRANCH   6  22
ATOM     22  O2  UNK A          43.003   0.464  10.820  0.00  0.00    -0.355 OA
ATOM     23  H6  UNK A          43.295  -0.411  11.123  0.00  0.00     0.218 HD
ENDBRANCH   6  22
BRANCH   8  24
ATOM     24  O3  UNK A          48.130   1.424  10.385  0.00  0.00    -0.360 OA
ATOM     25  H7  UNK A          48.965   1.911  10.443  0.00  0.00     0.217 HD
ENDBRANCH   8  24
BRANCH  10  26
ATOM     26  O5  UNK A          48.491   2.811   5.858  0.00  0.00    -0.361 OA
ATOM     27  H8  UNK A          48.227   2.338   5.050  0.00  0.00     0.217 HD
ENDBRANCH  10  26
TORSDOF 6
ENDMDL
MODEL 13
REMARK VINA RESULT:      -6.3     12.813     15.888
REMARK  6 active torsions:
REMARK  status: ('A' for Active; 'I' for Inactive)
REMARK    1  A    between atoms: O2_2  and  C5_12 
REMARK    2  A    between atoms: O3_3  and  C7_14 
REMARK    3  A    between atoms: O5_5  and  C9_16 
REMARK    4  A    between atoms: O6_6  and  C13_20 
REMARK    5  A    between atoms: O7_7  and  C15_22 
REMARK    6  A    between atoms: C3_10  and  C4_11 
ROOT
ATOM      1  O1  UNK A          38.861  22.094  11.041  0.00  0.00    -0.306 OA
ATOM      2  O4  UNK A          37.711  19.644  14.088  0.00  0.00    -0.284 OA
ATOM      3  C1  UNK A          39.289  20.133  12.405  0.00  0.00     0.084 A 
ATOM      4  C2  UNK A          39.627  21.007  11.374  0.00  0.00     0.096 A 
ATOM      5  C3  UNK A          37.709  22.340  11.771  0.00  0.00     0.123 A 
ATOM      6  C5  UNK A          37.268  21.570  12.783  0.00  0.00     0.152 A 
ATOM      7  C6  UNK A          38.061  20.381  13.175  0.00  0.00     0.223 A 
ATOM      8  C7  UNK A          40.108  19.039  12.698  0.00  0.00     0.085 A 
ATOM      9  C8  UNK A          40.786  20.791  10.627  0.00  0.00     0.075 A 
ATOM     10  C9  UNK A          41.606  19.701  10.917  0.00  0.00     0.071 A 
ATOM     11  C11 UNK A          41.267  18.827  11.951  0.00  0.00     0.074 A 
ENDROOT
BRANCH   5  12
ATOM     12  C4  UNK A          36.981  23.536  11.311  0.00  0.00     0.004 A 
ATOM     13  C10 UNK A          37.289  24.789  11.842  0.00  0.00     0.053 A 
ATOM     14  C13 UNK A          36.602  25.921  11.406  0.00  0.00     0.099 A 
ATOM     15  C15 UNK A          35.603  25.800  10.439  0.00  0.00     0.098 A 
ATOM     16  C14 UNK A          35.294  24.548   9.908  0.00  0.00     0.040 A 
ATOM     17  C12 UNK A          35.983  23.416  10.344  0.00  0.00     0.017 A 
BRANCH  14  18
ATOM     18  O6  UNK A          36.911  27.138  11.933  0.00  0.00    -0.358 OA
ATOM     19  H9  UNK A          36.529  27.840  11.382  0.00  0.00     0.217 HD
ENDBRANCH  14  18
BRANCH  15  20
ATOM     20  O7  UNK A          34.925  26.899  10.004  0.00  0.00    -0.358 OA
ATOM     21  H10 UNK A          35.108  27.650  10.591  0.00  0.00     0.217 HD
ENDBRANCH  15  20
ENDBRANCH   5  12
BRANCH   6  22
ATOM     22  O2  UNK A          36.099  21.825  13.468  0.00  0.00    -0.355 OA
ATOM     23  H6  UNK A          35.945  21.129  14.128  0.00  0.00     0.218 HD
ENDBRANCH   6  22
BRANCH   8  24
ATOM     24  O3  UNK A          39.824  18.155  13.695  0.00  0.00    -0.360 OA
ATOM     25  H7  UNK A          38.974  17.719  13.532  0.00  0.00     0.217 HD
ENDBRANCH   8  24
BRANCH  10  26
ATOM     26  O5  UNK A          42.737  19.489  10.191  0.00  0.00    -0.361 OA
ATOM     27  H8  UNK A          42.717  20.058   9.403  0.00  0.00     0.217 HD
ENDBRANCH  10  26
TORSDOF 6
ENDMDL
MODEL 14
REMARK VINA RESULT:      -6.3     10.362     11.995
REMARK  6 active torsions:
REMARK  status: ('A' for Active; 'I' for Inactive)
REMARK    1  A    between atoms: O2_2  and  C5_12 
REMARK    2  A    between atoms: O3_3  and  C7_14 
REMARK    3  A    between atoms: O5_5  and  C9_16 
REMARK    4  A    between atoms: O6_6  and  C13_20 
REMARK    5  A    between atoms: O7_7  and  C15_22 
REMARK    6  A    between atoms: C3_10  and  C4_11 
ROOT
ATOM      1  O1  UNK A          46.364  11.218  -7.905  0.00  0.00    -0.306 OA
ATOM      2  O4  UNK A          47.934   7.634  -9.043  0.00  0.00    -0.284 OA
ATOM      3  C1  UNK A          46.067   9.074  -9.004  0.00  0.00     0.084 A 
ATOM      4  C2  UNK A          45.590  10.315  -8.586  0.00  0.00     0.096 A 
ATOM      5  C3  UNK A          47.682  10.887  -7.632  0.00  0.00     0.123 A 
ATOM      6  C5  UNK A          48.262   9.721  -7.973  0.00  0.00     0.152 A 
ATOM      7  C6  UNK A          47.461   8.711  -8.706  0.00  0.00     0.223 A 
ATOM      8  C7  UNK A          45.231   8.193  -9.694  0.00  0.00     0.085 A 
ATOM      9  C8  UNK A          44.270  10.681  -8.854  0.00  0.00     0.075 A 
ATOM     10  C9  UNK A          43.432   9.804  -9.543  0.00  0.00     0.071 A 
ATOM     11  C11 UNK A          43.913   8.562  -9.961  0.00  0.00     0.074 A 
ENDROOT
BRANCH   5  12
ATOM     12  C4  UNK A          48.400  11.944  -6.898  0.00  0.00     0.004 A 
ATOM     13  C10 UNK A          48.304  12.017  -5.508  0.00  0.00     0.053 A 
ATOM     14  C13 UNK A          48.985  13.016  -4.814  0.00  0.00     0.099 A 
ATOM     15  C15 UNK A          49.762  13.944  -5.509  0.00  0.00     0.098 A 
ATOM     16  C14 UNK A          49.858  13.871  -6.898  0.00  0.00     0.040 A 
ATOM     17  C12 UNK A          49.178  12.871  -7.593  0.00  0.00     0.017 A 
BRANCH  14  18
ATOM     18  O6  UNK A          48.883  13.079  -3.457  0.00  0.00    -0.358 OA
ATOM     19  H9  UNK A          48.364  12.325  -3.131  0.00  0.00     0.217 HD
ENDBRANCH  14  18
BRANCH  15  20
ATOM     20  O7  UNK A          50.433  14.924  -4.841  0.00  0.00    -0.358 OA
ATOM     21  H10 UNK A          51.281  14.579  -4.519  0.00  0.00     0.217 HD
ENDBRANCH  15  20
ENDBRANCH   5  12
BRANCH   6  22
ATOM     22  O2  UNK A          49.567   9.409  -7.657  0.00  0.00    -0.355 OA
ATOM     23  H6  UNK A          50.157   9.703  -8.370  0.00  0.00     0.218 HD
ENDBRANCH   6  22
BRANCH   8  24
ATOM     24  O3  UNK A          45.648   6.969 -10.124  0.00  0.00    -0.360 OA
ATOM     25  H7  UNK A          45.518   6.303  -9.432  0.00  0.00     0.217 HD
ENDBRANCH   8  24
BRANCH  10  26
ATOM     26  O5  UNK A          42.146  10.160  -9.806  0.00  0.00    -0.361 OA
ATOM     27  H8  UNK A          41.608  10.013  -9.009  0.00  0.00     0.217 HD
ENDBRANCH  10  26
TORSDOF 6
ENDMDL
MODEL 15
REMARK VINA RESULT:      -6.3     21.789     25.938
REMARK  6 active torsions:
REMARK  status: ('A' for Active; 'I' for Inactive)
REMARK    1  A    between atoms: O2_2  and  C5_12 
REMARK    2  A    between atoms: O3_3  and  C7_14 
REMARK    3  A    between atoms: O5_5  and  C9_16 
REMARK    4  A    between atoms: O6_6  and  C13_20 
REMARK    5  A    between atoms: O7_7  and  C15_22 
REMARK    6  A    between atoms: C3_10  and  C4_11 
ROOT
ATOM      1  O1  UNK A          38.826  -9.946   4.856  0.00  0.00    -0.306 OA
ATOM      2  O4  UNK A          36.287 -10.704   1.760  0.00  0.00    -0.284 OA
ATOM      3  C1  UNK A          37.283  -9.107   3.181  0.00  0.00     0.084 A 
ATOM      4  C2  UNK A          38.163  -8.914   4.244  0.00  0.00     0.096 A 
ATOM      5  C3  UNK A          38.622 -11.234   4.388  0.00  0.00     0.123 A 
ATOM      6  C5  UNK A          37.795 -11.556   3.376  0.00  0.00     0.152 A 
ATOM      7  C6  UNK A          37.052 -10.473   2.688  0.00  0.00     0.223 A 
ATOM      8  C7  UNK A          36.634  -8.017   2.597  0.00  0.00     0.085 A 
ATOM      9  C8  UNK A          38.397  -7.628   4.732  0.00  0.00     0.075 A 
ATOM     10  C9  UNK A          37.751  -6.537   4.151  0.00  0.00     0.071 A 
ATOM     11  C11 UNK A          36.870  -6.732   3.086  0.00  0.00     0.074 A 
ENDROOT
BRANCH   5  12
ATOM     12  C4  UNK A          39.394 -12.246   5.131  0.00  0.00     0.004 A 
ATOM     13  C10 UNK A          39.466 -12.185   6.523  0.00  0.00     0.053 A 
ATOM     14  C13 UNK A          40.195 -13.144   7.226  0.00  0.00     0.099 A 
ATOM     15  C15 UNK A          40.854 -14.162   6.537  0.00  0.00     0.098 A 
ATOM     16  C14 UNK A          40.783 -14.223   5.146  0.00  0.00     0.040 A 
ATOM     17  C12 UNK A          40.052 -13.265   4.442  0.00  0.00     0.017 A 
BRANCH  14  18
ATOM     18  O6  UNK A          40.260 -13.074   8.585  0.00  0.00    -0.358 OA
ATOM     19  H9  UNK A          41.108 -13.432   8.892  0.00  0.00     0.217 HD
ENDBRANCH  14  18
BRANCH  15  20
ATOM     20  O7  UNK A          41.569 -15.105   7.214  0.00  0.00    -0.358 OA
ATOM     21  H10 UNK A          40.997 -15.547   7.861  0.00  0.00     0.217 HD
ENDBRANCH  15  20
ENDBRANCH   5  12
BRANCH   6  22
ATOM     22  O2  UNK A          37.589 -12.852   2.956  0.00  0.00    -0.355 OA
ATOM     23  H6  UNK A          37.281 -12.855   2.035  0.00  0.00     0.218 HD
ENDBRANCH   6  22
BRANCH   8  24
ATOM     24  O3  UNK A          35.765  -8.151   1.556  0.00  0.00    -0.360 OA
ATOM     25  H7  UNK A          36.024  -7.575   0.820  0.00  0.00     0.217 HD
ENDBRANCH   8  24
BRANCH  10  26
ATOM     26  O5  UNK A          37.978  -5.282   4.625  0.00  0.00    -0.361 OA
ATOM     27  H8  UNK A          38.664  -4.858   4.081  0.00  0.00     0.217 HD
ENDBRANCH  10  26
TORSDOF 6
ENDMDL
MODEL 16
REMARK VINA RESULT:      -6.3     22.187     23.086
REMARK  6 active torsions:
REMARK  status: ('A' for Active; 'I' for Inactive)
REMARK    1  A    between atoms: O2_2  and  C5_12 
REMARK    2  A    between atoms: O3_3  and  C7_14 
REMARK    3  A    between atoms: O5_5  and  C9_16 
REMARK    4  A    between atoms: O6_6  and  C13_20 
REMARK    5  A    between atoms: O7_7  and  C15_22 
REMARK    6  A    between atoms: C3_10  and  C4_11 
ROOT
ATOM      1  O1  UNK A          38.408  -6.626  -7.119  0.00  0.00    -0.306 OA
ATOM      2  O4  UNK A          36.583  -7.578  -3.601  0.00  0.00    -0.284 OA
ATOM      3  C1  UNK A          36.360  -6.861  -5.837  0.00  0.00     0.084 A 
ATOM      4  C2  UNK A          37.044  -6.549  -7.011  0.00  0.00     0.096 A 
ATOM      5  C3  UNK A          39.136  -7.046  -6.017  0.00  0.00     0.123 A 
ATOM      6  C5  UNK A          38.600  -7.369  -4.826  0.00  0.00     0.152 A 
ATOM      7  C6  UNK A          37.128  -7.295  -4.660  0.00  0.00     0.223 A 
ATOM      8  C7  UNK A          34.968  -6.763  -5.785  0.00  0.00     0.085 A 
ATOM      9  C8  UNK A          36.337  -6.132  -8.140  0.00  0.00     0.075 A 
ATOM     10  C9  UNK A          34.947  -6.033  -8.091  0.00  0.00     0.071 A 
ATOM     11  C11 UNK A          34.264  -6.347  -6.915  0.00  0.00     0.074 A 
ENDROOT
BRANCH   5  12
ATOM     12  C4  UNK A          40.588  -7.085  -6.268  0.00  0.00     0.004 A 
ATOM     13  C10 UNK A          41.093  -7.830  -7.335  0.00  0.00     0.053 A 
ATOM     14  C13 UNK A          42.466  -7.865  -7.573  0.00  0.00     0.099 A 
ATOM     15  C15 UNK A          43.336  -7.158  -6.743  0.00  0.00     0.098 A 
ATOM     16  C14 UNK A          42.832  -6.413  -5.676  0.00  0.00     0.040 A 
ATOM     17  C12 UNK A          41.458  -6.377  -5.439  0.00  0.00     0.017 A 
BRANCH  14  18
ATOM     18  O6  UNK A          42.948  -8.596  -8.616  0.00  0.00    -0.358 OA
ATOM     19  H9  UNK A          42.629  -8.222  -9.454  0.00  0.00     0.217 HD
ENDBRANCH  14  18
BRANCH  15  20
ATOM     20  O7  UNK A          44.680  -7.183  -6.966  0.00  0.00    -0.358 OA
ATOM     21  H10 UNK A          45.123  -7.655  -6.243  0.00  0.00     0.217 HD
ENDBRANCH  15  20
ENDBRANCH   5  12
BRANCH   6  22
ATOM     22  O2  UNK A          39.356  -7.752  -3.739  0.00  0.00    -0.355 OA
ATOM     23  H6  UNK A          39.514  -8.710  -3.769  0.00  0.00     0.218 HD
ENDBRANCH   6  22
BRANCH   8  24
ATOM     24  O3  UNK A          34.252  -7.056  -4.663  0.00  0.00    -0.360 OA
ATOM     25  H7  UNK A          34.748  -6.810  -3.868  0.00  0.00     0.217 HD
ENDBRANCH   8  24
BRANCH  10  26
ATOM     26  O5  UNK A          34.256  -5.627  -9.191  0.00  0.00    -0.361 OA
ATOM     27  H8  UNK A          34.045  -4.682  -9.102  0.00  0.00     0.217 HD
ENDBRANCH  10  26
TORSDOF 6
ENDMDL
MODEL 17
REMARK VINA RESULT:      -6.3     15.576     17.930
REMARK  6 active torsions:
REMARK  status: ('A' for Active; 'I' for Inactive)
REMARK    1  A    between atoms: O2_2  and  C5_12 
REMARK    2  A    between atoms: O3_3  and  C7_14 
REMARK    3  A    between atoms: O5_5  and  C9_16 
REMARK    4  A    between atoms: O6_6  and  C13_20 
REMARK    5  A    between atoms: O7_7  and  C15_22 
REMARK    6  A    between atoms: C3_10  and  C4_11 
ROOT
ATOM      1  O1  UNK A          43.940  -0.059   9.163  0.00  0.00    -0.306 OA
ATOM      2  O4  UNK A          40.961   2.068   7.372  0.00  0.00    -0.284 OA
ATOM      3  C1  UNK A          41.582   0.181   8.643  0.00  0.00     0.084 A 
ATOM      4  C2  UNK A          42.645  -0.501   9.233  0.00  0.00     0.096 A 
ATOM      5  C3  UNK A          44.202   1.123   8.488  0.00  0.00     0.123 A 
ATOM      6  C5  UNK A          43.269   1.870   7.870  0.00  0.00     0.152 A 
ATOM      7  C6  UNK A          41.854   1.429   7.914  0.00  0.00     0.223 A 
ATOM      8  C7  UNK A          40.281  -0.318   8.746  0.00  0.00     0.085 A 
ATOM      9  C8  UNK A          42.412  -1.688   9.928  0.00  0.00     0.075 A 
ATOM     10  C9  UNK A          41.115  -2.189  10.032  0.00  0.00     0.071 A 
ATOM     11  C11 UNK A          40.051  -1.504   9.442  0.00  0.00     0.074 A 
ENDROOT
BRANCH   5  12
ATOM     12  C4  UNK A          45.631   1.482   8.489  0.00  0.00     0.004 A 
ATOM     13  C10 UNK A          46.292   1.723   7.285  0.00  0.00     0.053 A 
ATOM     14  C13 UNK A          47.643   2.065   7.286  0.00  0.00     0.099 A 
ATOM     15  C15 UNK A          48.336   2.163   8.494  0.00  0.00     0.098 A 
ATOM     16  C14 UNK A          47.676   1.922   9.698  0.00  0.00     0.040 A 
ATOM     17  C12 UNK A          46.323   1.582   9.697  0.00  0.00     0.017 A 
BRANCH  14  18
ATOM     18  O6  UNK A          48.278   2.296   6.104  0.00  0.00    -0.358 OA
ATOM     19  H9  UNK A          49.037   2.885   6.249  0.00  0.00     0.217 HD
ENDBRANCH  14  18
BRANCH  15  20
ATOM     20  O7  UNK A          49.657   2.497   8.508  0.00  0.00    -0.358 OA
ATOM     21  H10 UNK A          49.879   2.917   9.354  0.00  0.00     0.217 HD
ENDBRANCH  15  20
ENDBRANCH   5  12
BRANCH   6  22
ATOM     22  O2  UNK A          43.566   3.025   7.179  0.00  0.00    -0.355 OA
ATOM     23  H6  UNK A          43.704   3.756   7.802  0.00  0.00     0.218 HD
ENDBRANCH   6  22
BRANCH   8  24
ATOM     24  O3  UNK A          39.207   0.310   8.188  0.00  0.00    -0.360 OA
ATOM     25  H7  UNK A          39.402   1.247   8.038  0.00  0.00     0.217 HD
ENDBRANCH   8  24
BRANCH  10  26
ATOM     26  O5  UNK A          40.886  -3.346  10.710  0.00  0.00    -0.361 OA
ATOM     27  H8  UNK A          39.926  -3.474  10.803  0.00  0.00     0.217 HD
ENDBRANCH  10  26
TORSDOF 6
ENDMDL
MODEL 18
REMARK VINA RESULT:      -6.2     14.971     16.964
REMARK  6 active torsions:
REMARK  status: ('A' for Active; 'I' for Inactive)
REMARK    1  A    between atoms: O2_2  and  C5_12 
REMARK    2  A    between atoms: O3_3  and  C7_14 
REMARK    3  A    between atoms: O5_5  and  C9_16 
REMARK    4  A    between atoms: O6_6  and  C13_20 
REMARK    5  A    between atoms: O7_7  and  C15_22 
REMARK    6  A    between atoms: C3_10  and  C4_11 
ROOT
ATOM      1  O1  UNK A          42.828   2.101   7.719  0.00  0.00    -0.306 OA
ATOM      2  O4  UNK A          42.292  -1.340   9.834  0.00  0.00    -0.284 OA
ATOM      3  C1  UNK A          41.355   0.311   8.436  0.00  0.00     0.084 A 
ATOM      4  C2  UNK A          41.603   1.489   7.734  0.00  0.00     0.096 A 
ATOM      5  C3  UNK A          43.870   1.515   8.422  0.00  0.00     0.123 A 
ATOM      6  C5  UNK A          43.761   0.386   9.145  0.00  0.00     0.152 A 
ATOM      7  C6  UNK A          42.452  -0.309   9.195  0.00  0.00     0.223 A 
ATOM      8  C7  UNK A          40.083  -0.267   8.416  0.00  0.00     0.085 A 
ATOM      9  C8  UNK A          40.577   2.098   7.009  0.00  0.00     0.075 A 
ATOM     10  C9  UNK A          39.307   1.523   6.986  0.00  0.00     0.071 A 
ATOM     11  C11 UNK A          39.061   0.343   7.689  0.00  0.00     0.074 A 
ENDROOT
BRANCH   5  12
ATOM     12  C4  UNK A          45.129   2.273   8.322  0.00  0.00     0.004 A 
ATOM     13  C10 UNK A          46.033   1.995   7.296  0.00  0.00     0.053 A 
ATOM     14  C13 UNK A          47.224   2.713   7.201  0.00  0.00     0.099 A 
ATOM     15  C15 UNK A          47.514   3.709   8.134  0.00  0.00     0.098 A 
ATOM     16  C14 UNK A          46.612   3.987   9.160  0.00  0.00     0.040 A 
ATOM     17  C12 UNK A          45.419   3.270   9.255  0.00  0.00     0.017 A 
BRANCH  14  18
ATOM     18  O6  UNK A          48.099   2.432   6.196  0.00  0.00    -0.358 OA
ATOM     19  H9  UNK A          49.003   2.397   6.548  0.00  0.00     0.217 HD
ENDBRANCH  14  18
BRANCH  15  20
ATOM     20  O7  UNK A          48.674   4.418   8.051  0.00  0.00    -0.358 OA
ATOM     21  H10 UNK A          49.085   4.479   8.928  0.00  0.00     0.217 HD
ENDBRANCH  15  20
ENDBRANCH   5  12
BRANCH   6  22
ATOM     22  O2  UNK A          44.808  -0.154   9.860  0.00  0.00    -0.355 OA
ATOM     23  H6  UNK A          45.397  -0.644   9.264  0.00  0.00     0.218 HD
ENDBRANCH   6  22
BRANCH   8  24
ATOM     24  O3  UNK A          39.789  -1.418   9.085  0.00  0.00    -0.360 OA
ATOM     25  H7  UNK A          39.995  -2.191   8.538  0.00  0.00     0.217 HD
ENDBRANCH   8  24
BRANCH  10  26
ATOM     26  O5  UNK A          38.306   2.114   6.279  0.00  0.00    -0.361 OA
ATOM     27  H8  UNK A          37.842   1.435   5.760  0.00  0.00     0.217 HD
ENDBRANCH  10  26
TORSDOF 6
ENDMDL
MODEL 19
REMARK VINA RESULT:      -6.2     15.898     18.502
REMARK  6 active torsions:
REMARK  status: ('A' for Active; 'I' for Inactive)
REMARK    1  A    between atoms: O2_2  and  C5_12 
REMARK    2  A    between atoms: O3_3  and  C7_14 
REMARK    3  A    between atoms: O5_5  and  C9_16 
REMARK    4  A    between atoms: O6_6  and  C13_20 
REMARK    5  A    between atoms: O7_7  and  C15_22 
REMARK    6  A    between atoms: C3_10  and  C4_11 
ROOT
ATOM      1  O1  UNK A          40.815  -1.436   8.575  0.00  0.00    -0.306 OA
ATOM      2  O4  UNK A          39.182   2.264   8.070  0.00  0.00    -0.284 OA
ATOM      3  C1  UNK A          41.043   0.975   8.733  0.00  0.00     0.084 A 
ATOM      4  C2  UNK A          41.543  -0.317   8.884  0.00  0.00     0.096 A 
ATOM      5  C3  UNK A          39.531  -1.274   8.078  0.00  0.00     0.123 A 
ATOM      6  C5  UNK A          38.929  -0.085   7.893  0.00  0.00     0.152 A 
ATOM      7  C6  UNK A          39.676   1.154   8.219  0.00  0.00     0.223 A 
ATOM      8  C7  UNK A          41.831   2.079   9.066  0.00  0.00     0.085 A 
ATOM      9  C8  UNK A          42.835  -0.512   9.372  0.00  0.00     0.075 A 
ATOM     10  C9  UNK A          43.625   0.588   9.705  0.00  0.00     0.071 A 
ATOM     11  C11 UNK A          43.123   1.881   9.552  0.00  0.00     0.074 A 
ENDROOT
BRANCH   5  12
ATOM     12  C4  UNK A          38.861  -2.554   7.787  0.00  0.00     0.004 A 
ATOM     13  C10 UNK A          38.909  -3.091   6.500  0.00  0.00     0.053 A 
ATOM     14  C13 UNK A          38.277  -4.303   6.226  0.00  0.00     0.099 A 
ATOM     15  C15 UNK A          37.593  -4.978   7.238  0.00  0.00     0.098 A 
ATOM     16  C14 UNK A          37.544  -4.441   8.524  0.00  0.00     0.040 A 
ATOM     17  C12 UNK A          38.178  -3.229   8.799  0.00  0.00     0.017 A 
BRANCH  14  18
ATOM     18  O6  UNK A          38.329  -4.817   4.966  0.00  0.00    -0.358 OA
ATOM     19  H9  UNK A          37.435  -4.860   4.591  0.00  0.00     0.217 HD
ENDBRANCH  14  18
BRANCH  15  20
ATOM     20  O7  UNK A          36.971  -6.163   6.982  0.00  0.00    -0.358 OA
ATOM     21  H10 UNK A          37.186  -6.802   7.679  0.00  0.00     0.217 HD
ENDBRANCH  15  20
ENDBRANCH   5  12
BRANCH   6  22
ATOM     22  O2  UNK A          37.638   0.041   7.428  0.00  0.00    -0.355 OA
ATOM     23  H6  UNK A          37.022  -0.392   8.041  0.00  0.00     0.218 HD
ENDBRANCH   6  22
BRANCH   8  24
ATOM     24  O3  UNK A          41.390   3.362   8.937  0.00  0.00    -0.360 OA
ATOM     25  H7  UNK A          41.306   3.782   9.806  0.00  0.00     0.217 HD
ENDBRANCH   8  24
BRANCH  10  26
ATOM     26  O5  UNK A          44.886   0.400  10.181  0.00  0.00    -0.361 OA
ATOM     27  H8  UNK A          45.130   1.158  10.739  0.00  0.00     0.217 HD
ENDBRANCH  10  26
TORSDOF 6
ENDMDL
