MODEL 1
REMARK VINA RESULT:      -7.0      0.000      0.000
REMARK  6 active torsions:
REMARK  status: ('A' for Active; 'I' for Inactive)
REMARK    1  A    between atoms: O2_2  and  C5_12 
REMARK    2  A    between atoms: O3_3  and  C7_14 
REMARK    3  A    between atoms: O5_5  and  C9_16 
REMARK    4  A    between atoms: O6_6  and  C13_20 
REMARK    5  A    between atoms: O7_7  and  C15_22 
REMARK    6  A    between atoms: C3_10  and  C4_11 
ROOT
ATOM      1  O1  UNK A          39.596  14.614   0.058  0.00  0.00    -0.306 OA
ATOM      2  O4  UNK A          42.281  13.215  -2.670  0.00  0.00    -0.284 OA
ATOM      3  C1  UNK A          40.894  12.760  -0.818  0.00  0.00     0.084 A 
ATOM      4  C2  UNK A          39.981  13.299   0.087  0.00  0.00     0.096 A 
ATOM      5  C3  UNK A          40.127  15.438  -0.922  0.00  0.00     0.123 A 
ATOM      6  C5  UNK A          41.021  15.045  -1.848  0.00  0.00     0.152 A 
ATOM      7  C6  UNK A          41.471  13.632  -1.852  0.00  0.00     0.223 A 
ATOM      8  C7  UNK A          41.251  11.411  -0.739  0.00  0.00     0.085 A 
ATOM      9  C8  UNK A          39.422  12.492   1.078  0.00  0.00     0.075 A 
ATOM     10  C9  UNK A          39.776  11.146   1.159  0.00  0.00     0.071 A 
ATOM     11  C11 UNK A          40.689  10.607   0.252  0.00  0.00     0.074 A 
ENDROOT
BRANCH   5  12
ATOM     12  C4  UNK A          39.630  16.823  -0.840  0.00  0.00     0.004 A 
ATOM     13  C10 UNK A          38.746  17.190   0.175  0.00  0.00     0.053 A 
ATOM     14  C13 UNK A          38.277  18.500   0.253  0.00  0.00     0.099 A 
ATOM     15  C15 UNK A          38.690  19.445  -0.687  0.00  0.00     0.098 A 
ATOM     16  C14 UNK A          39.573  19.080  -1.702  0.00  0.00     0.040 A 
ATOM     17  C12 UNK A          40.043  17.768  -1.780  0.00  0.00     0.017 A 
BRANCH  14  18
ATOM     18  O6  UNK A          37.414  18.846   1.248  0.00  0.00    -0.358 OA
ATOM     19  H9  UNK A          36.934  19.653   1.000  0.00  0.00     0.217 HD
ENDBRANCH  14  18
BRANCH  15  20
ATOM     20  O7  UNK A          38.239  20.730  -0.621  0.00  0.00    -0.358 OA
ATOM     21  H10 UNK A          38.049  20.963   0.302  0.00  0.00     0.217 HD
ENDBRANCH  15  20
ENDBRANCH   5  12
BRANCH   6  22
ATOM     22  O2  UNK A          41.555  15.898  -2.789  0.00  0.00    -0.355 OA
ATOM     23  H6  UNK A          40.965  16.658  -2.918  0.00  0.00     0.218 HD
ENDBRANCH   6  22
BRANCH   8  24
ATOM     24  O3  UNK A          42.138  10.835  -1.599  0.00  0.00    -0.360 OA
ATOM     25  H7  UNK A          41.908  11.045  -2.517  0.00  0.00     0.217 HD
ENDBRANCH   8  24
BRANCH  10  26
ATOM     26  O5  UNK A          39.231  10.357   2.125  0.00  0.00    -0.361 OA
ATOM     27  H8  UNK A          39.111   9.459   1.770  0.00  0.00     0.217 HD
ENDBRANCH  10  26
TORSDOF 6
ENDMDL
MODEL 2
REMARK VINA RESULT:      -6.9      1.347      6.654
REMARK  6 active torsions:
REMARK  status: ('A' for Active; 'I' for Inactive)
REMARK    1  A    between atoms: O2_2  and  C5_12 
REMARK    2  A    between atoms: O3_3  and  C7_14 
REMARK    3  A    between atoms: O5_5  and  C9_16 
REMARK    4  A    between atoms: O6_6  and  C13_20 
REMARK    5  A    between atoms: O7_7  and  C15_22 
REMARK    6  A    between atoms: C3_10  and  C4_11 
ROOT
ATOM      1  O1  UNK A          39.400  16.343  -0.225  0.00  0.00    -0.306 OA
ATOM      2  O4  UNK A          40.598  18.770  -3.272  0.00  0.00    -0.284 OA
ATOM      3  C1  UNK A          39.424  18.548  -1.239  0.00  0.00     0.084 A 
ATOM      4  C2  UNK A          39.046  17.666  -0.228  0.00  0.00     0.096 A 
ATOM      5  C3  UNK A          40.180  15.864  -1.267  0.00  0.00     0.123 A 
ATOM      6  C5  UNK A          40.604  16.607  -2.306  0.00  0.00     0.152 A 
ATOM      7  C6  UNK A          40.240  18.044  -2.353  0.00  0.00     0.223 A 
ATOM      8  C7  UNK A          39.031  19.888  -1.189  0.00  0.00     0.085 A 
ATOM      9  C8  UNK A          38.269  18.120   0.839  0.00  0.00     0.075 A 
ATOM     10  C9  UNK A          37.875  19.457   0.892  0.00  0.00     0.071 A 
ATOM     11  C11 UNK A          38.256  20.339  -0.121  0.00  0.00     0.074 A 
ENDROOT
BRANCH   5  12
ATOM     12  C4  UNK A          40.490  14.429  -1.142  0.00  0.00     0.004 A 
ATOM     13  C10 UNK A          39.617  13.583  -0.457  0.00  0.00     0.053 A 
ATOM     14  C13 UNK A          39.909  12.225  -0.340  0.00  0.00     0.099 A 
ATOM     15  C15 UNK A          41.076  11.712  -0.907  0.00  0.00     0.098 A 
ATOM     16  C14 UNK A          41.949  12.557  -1.592  0.00  0.00     0.040 A 
ATOM     17  C12 UNK A          41.656  13.916  -1.709  0.00  0.00     0.017 A 
BRANCH  14  18
ATOM     18  O6  UNK A          39.051  11.409   0.332  0.00  0.00    -0.358 OA
ATOM     19  H9  UNK A          38.771  10.680  -0.245  0.00  0.00     0.217 HD
ENDBRANCH  14  18
BRANCH  15  20
ATOM     20  O7  UNK A          41.372  10.386  -0.800  0.00  0.00    -0.358 OA
ATOM     21  H10 UNK A          40.674   9.860  -1.221  0.00  0.00     0.217 HD
ENDBRANCH  15  20
ENDBRANCH   5  12
BRANCH   6  22
ATOM     22  O2  UNK A          41.352  16.093  -3.343  0.00  0.00    -0.355 OA
ATOM     23  H6  UNK A          41.931  16.783  -3.706  0.00  0.00     0.218 HD
ENDBRANCH   6  22
BRANCH   8  24
ATOM     24  O3  UNK A          39.374  20.790  -2.151  0.00  0.00    -0.360 OA
ATOM     25  H7  UNK A          40.007  20.400  -2.773  0.00  0.00     0.217 HD
ENDBRANCH   8  24
BRANCH  10  26
ATOM     26  O5  UNK A          37.119  19.902   1.932  0.00  0.00    -0.361 OA
ATOM     27  H8  UNK A          37.457  20.766   2.222  0.00  0.00     0.217 HD
ENDBRANCH  10  26
TORSDOF 6
ENDMDL
MODEL 3
REMARK VINA RESULT:      -6.5     10.071     11.589
REMARK  6 active torsions:
REMARK  status: ('A' for Active; 'I' for Inactive)
REMARK    1  A    between atoms: O2_2  and  C5_12 
REMARK    2  A    between atoms: O3_3  and  C7_14 
REMARK    3  A    between atoms: O5_5  and  C9_16 
REMARK    4  A    between atoms: O6_6  and  C13_20 
REMARK    5  A    between atoms: O7_7  and  C15_22 
REMARK    6  A    between atoms: C3_10  and  C4_11 
ROOT
ATOM      1  O1  UNK A          46.265  11.285  -7.459  0.00  0.00    -0.306 OA
ATOM      2  O4  UNK A          48.273  12.071 -10.917  0.00  0.00    -0.284 OA
ATOM      3  C1  UNK A          46.268  11.382  -9.884  0.00  0.00     0.084 A 
ATOM      4  C2  UNK A          45.638  11.129  -8.668  0.00  0.00     0.096 A 
ATOM      5  C3  UNK A          47.579  11.725  -7.448  0.00  0.00     0.123 A 
ATOM      6  C5  UNK A          48.302  11.997  -8.550  0.00  0.00     0.152 A 
ATOM      7  C6  UNK A          47.667  11.838  -9.880  0.00  0.00     0.223 A 
ATOM      8  C7  UNK A          45.578  11.205 -11.086  0.00  0.00     0.085 A 
ATOM      9  C8  UNK A          44.312  10.694  -8.646  0.00  0.00     0.075 A 
ATOM     10  C9  UNK A          43.620  10.516  -9.844  0.00  0.00     0.071 A 
ATOM     11  C11 UNK A          44.253  10.771 -11.062  0.00  0.00     0.074 A 
ENDROOT
BRANCH   5  12
ATOM     12  C4  UNK A          48.132  11.850  -6.088  0.00  0.00     0.004 A 
ATOM     13  C10 UNK A          48.145  13.090  -5.449  0.00  0.00     0.053 A 
ATOM     14  C13 UNK A          48.667  13.207  -4.162  0.00  0.00     0.099 A 
ATOM     15  C15 UNK A          49.179  12.084  -3.512  0.00  0.00     0.098 A 
ATOM     16  C14 UNK A          49.167  10.843  -4.150  0.00  0.00     0.040 A 
ATOM     17  C12 UNK A          48.643  10.726  -5.437  0.00  0.00     0.017 A 
BRANCH  14  18
ATOM     18  O6  UNK A          48.675  14.423  -3.549  0.00  0.00    -0.358 OA
ATOM     19  H9  UNK A          48.026  15.009  -3.972  0.00  0.00     0.217 HD
ENDBRANCH  14  18
BRANCH  15  20
ATOM     20  O7  UNK A          49.690  12.185  -2.253  0.00  0.00    -0.358 OA
ATOM     21  H10 UNK A          50.304  12.936  -2.209  0.00  0.00     0.217 HD
ENDBRANCH  15  20
ENDBRANCH   5  12
BRANCH   6  22
ATOM     22  O2  UNK A          49.619  12.402  -8.505  0.00  0.00    -0.355 OA
ATOM     23  H6  UNK A          50.027  12.295  -9.379  0.00  0.00     0.218 HD
ENDBRANCH   6  22
BRANCH   8  24
ATOM     24  O3  UNK A          46.148  11.439 -12.302  0.00  0.00    -0.360 OA
ATOM     25  H7  UNK A          46.544  12.323 -12.328  0.00  0.00     0.217 HD
ENDBRANCH   8  24
BRANCH  10  26
ATOM     26  O5  UNK A          42.327  10.092  -9.826  0.00  0.00    -0.361 OA
ATOM     27  H8  UNK A          41.772  10.787  -9.431  0.00  0.00     0.217 HD
ENDBRANCH  10  26
TORSDOF 6
ENDMDL
MODEL 4
REMARK VINA RESULT:      -6.5     10.299     11.579
REMARK  6 active torsions:
REMARK  status: ('A' for Active; 'I' for Inactive)
REMARK    1  A    between atoms: O2_2  and  C5_12 
REMARK    2  A    between atoms: O3_3  and  C7_14 
REMARK    3  A    between atoms: O5_5  and  C9_16 
REMARK    4  A    between atoms: O6_6  and  C13_20 
REMARK    5  A    between atoms: O7_7  and  C15_22 
REMARK    6  A    between atoms: C3_10  and  C4_11 
ROOT
ATOM      1  O1  UNK A          46.257  11.267  -8.006  0.00  0.00    -0.306 OA
ATOM      2  O4  UNK A          47.726   7.569  -8.885  0.00  0.00    -0.284 OA
ATOM      3  C1  UNK A          45.933   9.094  -9.037  0.00  0.00     0.084 A 
ATOM      4  C2  UNK A          45.489  10.372  -8.704  0.00  0.00     0.096 A 
ATOM      5  C3  UNK A          47.535  10.888  -7.626  0.00  0.00     0.123 A 
ATOM      6  C5  UNK A          48.079   9.683  -7.877  0.00  0.00     0.152 A 
ATOM      7  C6  UNK A          47.284   8.680  -8.625  0.00  0.00     0.223 A 
ATOM      8  C7  UNK A          45.105   8.223  -9.749  0.00  0.00     0.085 A 
ATOM      9  C8  UNK A          44.211  10.786  -9.081  0.00  0.00     0.075 A 
ATOM     10  C9  UNK A          43.381   9.919  -9.793  0.00  0.00     0.071 A 
ATOM     11  C11 UNK A          43.829   8.640 -10.125  0.00  0.00     0.074 A 
ENDROOT
BRANCH   5  12
ATOM     12  C4  UNK A          48.251  11.941  -6.885  0.00  0.00     0.004 A 
ATOM     13  C10 UNK A          48.087  12.059  -5.505  0.00  0.00     0.053 A 
ATOM     14  C13 UNK A          48.765  13.055  -4.803  0.00  0.00     0.099 A 
ATOM     15  C15 UNK A          49.608  13.935  -5.483  0.00  0.00     0.098 A 
ATOM     16  C14 UNK A          49.772  13.818  -6.863  0.00  0.00     0.040 A 
ATOM     17  C12 UNK A          49.094  12.822  -7.564  0.00  0.00     0.017 A 
BRANCH  14  18
ATOM     18  O6  UNK A          48.596  13.161  -3.456  0.00  0.00    -0.358 OA
ATOM     19  H9  UNK A          48.820  14.060  -3.167  0.00  0.00     0.217 HD
ENDBRANCH  14  18
BRANCH  15  20
ATOM     20  O7  UNK A          50.277  14.912  -4.808  0.00  0.00    -0.358 OA
ATOM     21  H10 UNK A          51.100  15.128  -5.276  0.00  0.00     0.217 HD
ENDBRANCH  15  20
ENDBRANCH   5  12
BRANCH   6  22
ATOM     22  O2  UNK A          49.342   9.326  -7.457  0.00  0.00    -0.355 OA
ATOM     23  H6  UNK A          49.935   9.248  -8.222  0.00  0.00     0.218 HD
ENDBRANCH   6  22
BRANCH   8  24
ATOM     24  O3  UNK A          45.491   6.963 -10.099  0.00  0.00    -0.360 OA
ATOM     25  H7  UNK A          46.378   6.976 -10.490  0.00  0.00     0.217 HD
ENDBRANCH   8  24
BRANCH  10  26
ATOM     26  O5  UNK A          42.135  10.321 -10.162  0.00  0.00    -0.361 OA
ATOM     27  H8  UNK A          41.495   9.632  -9.915  0.00  0.00     0.217 HD
ENDBRANCH  10  26
TORSDOF 6
ENDMDL
MODEL 5
REMARK VINA RESULT:      -6.1      9.757     11.491
REMARK  6 active torsions:
REMARK  status: ('A' for Active; 'I' for Inactive)
REMARK    1  A    between atoms: O2_2  and  C5_12 
REMARK    2  A    between atoms: O3_3  and  C7_14 
REMARK    3  A    between atoms: O5_5  and  C9_16 
REMARK    4  A    between atoms: O6_6  and  C13_20 
REMARK    5  A    between atoms: O7_7  and  C15_22 
REMARK    6  A    between atoms: C3_10  and  C4_11 
ROOT
ATOM      1  O1  UNK A          45.894  11.156  -7.851  0.00  0.00    -0.306 OA
ATOM      2  O4  UNK A          47.913   7.879  -9.190  0.00  0.00    -0.284 OA
ATOM      3  C1  UNK A          45.944   9.176  -9.253  0.00  0.00     0.084 A 
ATOM      4  C2  UNK A          45.307  10.311  -8.756  0.00  0.00     0.096 A 
ATOM      5  C3  UNK A          47.182  10.876  -7.422  0.00  0.00     0.123 A 
ATOM      6  C5  UNK A          47.902   9.810  -7.817  0.00  0.00     0.152 A 
ATOM      7  C6  UNK A          47.306   8.865  -8.792  0.00  0.00     0.223 A 
ATOM      8  C7  UNK A          45.295   8.349 -10.174  0.00  0.00     0.085 A 
ATOM      9  C8  UNK A          44.014  10.626  -9.176  0.00  0.00     0.075 A 
ATOM     10  C9  UNK A          43.363   9.803 -10.096  0.00  0.00     0.071 A 
ATOM     11  C11 UNK A          44.003   8.667 -10.593  0.00  0.00     0.074 A 
ENDROOT
BRANCH   5  12
ATOM     12  C4  UNK A          47.693  11.861  -6.453  0.00  0.00     0.004 A 
ATOM     13  C10 UNK A          48.578  12.856  -6.870  0.00  0.00     0.053 A 
ATOM     14  C13 UNK A          49.061  13.789  -5.953  0.00  0.00     0.099 A 
ATOM     15  C15 UNK A          48.660  13.726  -4.618  0.00  0.00     0.098 A 
ATOM     16  C14 UNK A          47.775  12.732  -4.201  0.00  0.00     0.040 A 
ATOM     17  C12 UNK A          47.292  11.799  -5.118  0.00  0.00     0.017 A 
BRANCH  14  18
ATOM     18  O6  UNK A          49.925  14.755  -6.370  0.00  0.00    -0.358 OA
ATOM     19  H9  UNK A          50.784  14.357  -6.584  0.00  0.00     0.217 HD
ENDBRANCH  14  18
BRANCH  15  20
ATOM     20  O7  UNK A          49.124  14.633  -3.713  0.00  0.00    -0.358 OA
ATOM     21  H10 UNK A          50.094  14.645  -3.728  0.00  0.00     0.217 HD
ENDBRANCH  15  20
ENDBRANCH   5  12
BRANCH   6  22
ATOM     22  O2  UNK A          49.169   9.541  -7.347  0.00  0.00    -0.355 OA
ATOM     23  H6  UNK A          49.116   9.152  -6.459  0.00  0.00     0.218 HD
ENDBRANCH   6  22
BRANCH   8  24
ATOM     24  O3  UNK A          45.873   7.228 -10.690  0.00  0.00    -0.360 OA
ATOM     25  H7  UNK A          46.395   7.446 -11.477  0.00  0.00     0.217 HD
ENDBRANCH   8  24
BRANCH  10  26
ATOM     26  O5  UNK A          42.103  10.109 -10.507  0.00  0.00    -0.361 OA
ATOM     27  H8  UNK A          42.080  11.038 -10.792  0.00  0.00     0.217 HD
ENDBRANCH  10  26
TORSDOF 6
ENDMDL
MODEL 6
REMARK VINA RESULT:      -6.1     10.068     11.637
REMARK  6 active torsions:
REMARK  status: ('A' for Active; 'I' for Inactive)
REMARK    1  A    between atoms: O2_2  and  C5_12 
REMARK    2  A    between atoms: O3_3  and  C7_14 
REMARK    3  A    between atoms: O5_5  and  C9_16 
REMARK    4  A    between atoms: O6_6  and  C13_20 
REMARK    5  A    between atoms: O7_7  and  C15_22 
REMARK    6  A    between atoms: C3_10  and  C4_11 
ROOT
ATOM      1  O1  UNK A          46.952  11.985  -7.183  0.00  0.00    -0.306 OA
ATOM      2  O4  UNK A          49.654   8.963  -6.764  0.00  0.00    -0.284 OA
ATOM      3  C1  UNK A          48.859  11.050  -6.008  0.00  0.00     0.084 A 
ATOM      4  C2  UNK A          47.908  12.050  -6.204  0.00  0.00     0.096 A 
ATOM      5  C3  UNK A          46.922  10.869  -8.005  0.00  0.00     0.123 A 
ATOM      6  C5  UNK A          47.786   9.840  -7.927  0.00  0.00     0.152 A 
ATOM      7  C6  UNK A          48.841   9.870  -6.885  0.00  0.00     0.223 A 
ATOM      8  C7  UNK A          49.811  11.172  -4.993  0.00  0.00     0.085 A 
ATOM      9  C8  UNK A          47.907  13.181  -5.386  0.00  0.00     0.075 A 
ATOM     10  C9  UNK A          48.856  13.306  -4.371  0.00  0.00     0.071 A 
ATOM     11  C11 UNK A          49.807  12.303  -4.176  0.00  0.00     0.074 A 
ENDROOT
BRANCH   5  12
ATOM     12  C4  UNK A          45.848  10.925  -9.012  0.00  0.00     0.004 A 
ATOM     13  C10 UNK A          44.608  10.345  -8.745  0.00  0.00     0.053 A 
ATOM     14  C13 UNK A          43.592  10.399  -9.697  0.00  0.00     0.099 A 
ATOM     15  C15 UNK A          43.815  11.033 -10.920  0.00  0.00     0.098 A 
ATOM     16  C14 UNK A          45.054  11.614 -11.188  0.00  0.00     0.040 A 
ATOM     17  C12 UNK A          46.071  11.560 -10.235  0.00  0.00     0.017 A 
BRANCH  14  18
ATOM     18  O6  UNK A          42.386   9.828  -9.425  0.00  0.00    -0.358 OA
ATOM     19  H9  UNK A          41.821   9.861 -10.214  0.00  0.00     0.217 HD
ENDBRANCH  14  18
BRANCH  15  20
ATOM     20  O7  UNK A          42.829  11.094 -11.858  0.00  0.00    -0.358 OA
ATOM     21  H10 UNK A          42.032  11.490 -11.471  0.00  0.00     0.217 HD
ENDBRANCH  15  20
ENDBRANCH   5  12
BRANCH   6  22
ATOM     22  O2  UNK A          47.750   8.760  -8.781  0.00  0.00    -0.355 OA
ATOM     23  H6  UNK A          47.913   7.941  -8.286  0.00  0.00     0.218 HD
ENDBRANCH   6  22
BRANCH   8  24
ATOM     24  O3  UNK A          50.762  10.224  -4.760  0.00  0.00    -0.360 OA
ATOM     25  H7  UNK A          51.512  10.338  -5.363  0.00  0.00     0.217 HD
ENDBRANCH   8  24
BRANCH  10  26
ATOM     26  O5  UNK A          48.855  14.407  -3.572  0.00  0.00    -0.361 OA
ATOM     27  H8  UNK A          48.863  15.203  -4.131  0.00  0.00     0.217 HD
ENDBRANCH  10  26
TORSDOF 6
ENDMDL
MODEL 7
REMARK VINA RESULT:      -6.0      9.983     12.348
REMARK  6 active torsions:
REMARK  status: ('A' for Active; 'I' for Inactive)
REMARK    1  A    between atoms: O2_2  and  C5_12 
REMARK    2  A    between atoms: O3_3  and  C7_14 
REMARK    3  A    between atoms: O5_5  and  C9_16 
REMARK    4  A    between atoms: O6_6  and  C13_20 
REMARK    5  A    between atoms: O7_7  and  C15_22 
REMARK    6  A    between atoms: C3_10  and  C4_11 
ROOT
ATOM      1  O1  UNK A          47.364  11.874  -7.029  0.00  0.00    -0.306 OA
ATOM      2  O4  UNK A          50.654  12.948  -9.181  0.00  0.00    -0.284 OA
ATOM      3  C1  UNK A          49.407  13.173  -7.192  0.00  0.00     0.084 A 
ATOM      4  C2  UNK A          48.263  12.766  -6.508  0.00  0.00     0.096 A 
ATOM      5  C3  UNK A          47.611  11.343  -8.285  0.00  0.00     0.123 A 
ATOM      6  C5  UNK A          48.672  11.658  -9.052  0.00  0.00     0.152 A 
ATOM      7  C6  UNK A          49.669  12.624  -8.531  0.00  0.00     0.223 A 
ATOM      8  C7  UNK A          50.289  14.088  -6.610  0.00  0.00     0.085 A 
ATOM      9  C8  UNK A          47.992  13.276  -5.237  0.00  0.00     0.075 A 
ATOM     10  C9  UNK A          48.870  14.189  -4.653  0.00  0.00     0.071 A 
ATOM     11  C11 UNK A          50.016  14.595  -5.339  0.00  0.00     0.074 A 
ENDROOT
BRANCH   5  12
ATOM     12  C4  UNK A          46.570  10.398  -8.726  0.00  0.00     0.004 A 
ATOM     13  C10 UNK A          45.230  10.789  -8.735  0.00  0.00     0.053 A 
ATOM     14  C13 UNK A          44.245   9.895  -9.153  0.00  0.00     0.099 A 
ATOM     15  C15 UNK A          44.599   8.608  -9.560  0.00  0.00     0.098 A 
ATOM     16  C14 UNK A          45.937   8.217  -9.552  0.00  0.00     0.040 A 
ATOM     17  C12 UNK A          46.923   9.112  -9.134  0.00  0.00     0.017 A 
BRANCH  14  18
ATOM     18  O6  UNK A          42.941  10.287  -9.156  0.00  0.00    -0.358 OA
ATOM     19  H9  UNK A          42.839  11.084  -9.701  0.00  0.00     0.217 HD
ENDBRANCH  14  18
BRANCH  15  20
ATOM     20  O7  UNK A          43.645   7.727  -9.972  0.00  0.00    -0.358 OA
ATOM     21  H10 UNK A          43.954   6.819  -9.828  0.00  0.00     0.217 HD
ENDBRANCH  15  20
ENDBRANCH   5  12
BRANCH   6  22
ATOM     22  O2  UNK A          48.872  11.136 -10.311  0.00  0.00    -0.355 OA
ATOM     23  H6  UNK A          49.806  11.223 -10.560  0.00  0.00     0.218 HD
ENDBRANCH   6  22
BRANCH   8  24
ATOM     24  O3  UNK A          51.420  14.518  -7.236  0.00  0.00    -0.360 OA
ATOM     25  H7  UNK A          52.180  14.468  -6.636  0.00  0.00     0.217 HD
ENDBRANCH   8  24
BRANCH  10  26
ATOM     26  O5  UNK A          48.608  14.686  -3.414  0.00  0.00    -0.361 OA
ATOM     27  H8  UNK A          49.019  15.564  -3.332  0.00  0.00     0.217 HD
ENDBRANCH  10  26
TORSDOF 6
ENDMDL
MODEL 8
REMARK VINA RESULT:      -6.0     10.449     12.760
REMARK  6 active torsions:
REMARK  status: ('A' for Active; 'I' for Inactive)
REMARK    1  A    between atoms: O2_2  and  C5_12 
REMARK    2  A    between atoms: O3_3  and  C7_14 
REMARK    3  A    between atoms: O5_5  and  C9_16 
REMARK    4  A    between atoms: O6_6  and  C13_20 
REMARK    5  A    between atoms: O7_7  and  C15_22 
REMARK    6  A    between atoms: C3_10  and  C4_11 
ROOT
ATOM      1  O1  UNK A          49.342  12.301  -7.434  0.00  0.00    -0.306 OA
ATOM      2  O4  UNK A          50.544  11.018  -3.757  0.00  0.00    -0.284 OA
ATOM      3  C1  UNK A          50.890  12.481  -5.574  0.00  0.00     0.084 A 
ATOM      4  C2  UNK A          50.430  12.874  -6.829  0.00  0.00     0.096 A 
ATOM      5  C3  UNK A          48.663  11.297  -6.762  0.00  0.00     0.123 A 
ATOM      6  C5  UNK A          49.009  10.821  -5.551  0.00  0.00     0.152 A 
ATOM      7  C6  UNK A          50.182  11.408  -4.860  0.00  0.00     0.223 A 
ATOM      8  C7  UNK A          52.006  13.102  -5.007  0.00  0.00     0.085 A 
ATOM      9  C8  UNK A          51.086  13.889  -7.527  0.00  0.00     0.075 A 
ATOM     10  C9  UNK A          52.201  14.510  -6.964  0.00  0.00     0.071 A 
ATOM     11  C11 UNK A          52.660  14.116  -5.706  0.00  0.00     0.074 A 
ENDROOT
BRANCH   5  12
ATOM     12  C4  UNK A          47.516  10.769  -7.521  0.00  0.00     0.004 A 
ATOM     13  C10 UNK A          46.304  11.460  -7.527  0.00  0.00     0.053 A 
ATOM     14  C13 UNK A          45.220  10.961  -8.247  0.00  0.00     0.099 A 
ATOM     15  C15 UNK A          45.346   9.768  -8.961  0.00  0.00     0.098 A 
ATOM     16  C14 UNK A          46.557   9.077  -8.956  0.00  0.00     0.040 A 
ATOM     17  C12 UNK A          47.643   9.577  -8.236  0.00  0.00     0.017 A 
BRANCH  14  18
ATOM     18  O6  UNK A          44.041  11.643  -8.244  0.00  0.00    -0.358 OA
ATOM     19  H9  UNK A          44.204  12.578  -8.040  0.00  0.00     0.217 HD
ENDBRANCH  14  18
BRANCH  15  20
ATOM     20  O7  UNK A          44.294   9.271  -9.670  0.00  0.00    -0.358 OA
ATOM     21  H10 UNK A          43.789   8.654  -9.117  0.00  0.00     0.217 HD
ENDBRANCH  15  20
ENDBRANCH   5  12
BRANCH   6  22
ATOM     22  O2  UNK A          48.331   9.799  -4.923  0.00  0.00    -0.355 OA
ATOM     23  H6  UNK A          48.727   9.626  -4.053  0.00  0.00     0.218 HD
ENDBRANCH   6  22
BRANCH   8  24
ATOM     24  O3  UNK A          52.496  12.756  -3.783  0.00  0.00    -0.360 OA
ATOM     25  H7  UNK A          53.219  12.116  -3.874  0.00  0.00     0.217 HD
ENDBRANCH   8  24
BRANCH  10  26
ATOM     26  O5  UNK A          52.842  15.500  -7.642  0.00  0.00    -0.361 OA
ATOM     27  H8  UNK A          52.663  16.350  -7.205  0.00  0.00     0.217 HD
ENDBRANCH  10  26
TORSDOF 6
ENDMDL
MODEL 9
REMARK VINA RESULT:      -6.0     10.633     12.345
REMARK  6 active torsions:
REMARK  status: ('A' for Active; 'I' for Inactive)
REMARK    1  A    between atoms: O2_2  and  C5_12 
REMARK    2  A    between atoms: O3_3  and  C7_14 
REMARK    3  A    between atoms: O5_5  and  C9_16 
REMARK    4  A    between atoms: O6_6  and  C13_20 
REMARK    5  A    between atoms: O7_7  and  C15_22 
REMARK    6  A    between atoms: C3_10  and  C4_11 
ROOT
ATOM      1  O1  UNK A          49.980  10.071  -4.755  0.00  0.00    -0.306 OA
ATOM      2  O4  UNK A          47.747  13.210  -6.084  0.00  0.00    -0.284 OA
ATOM      3  C1  UNK A          48.414  10.968  -6.378  0.00  0.00     0.084 A 
ATOM      4  C2  UNK A          49.201   9.934  -5.874  0.00  0.00     0.096 A 
ATOM      5  C3  UNK A          49.974  11.287  -4.089  0.00  0.00     0.123 A 
ATOM      6  C5  UNK A          49.267  12.365  -4.476  0.00  0.00     0.152 A 
ATOM      7  C6  UNK A          48.413  12.265  -5.685  0.00  0.00     0.223 A 
ATOM      8  C7  UNK A          47.641  10.770  -7.525  0.00  0.00     0.085 A 
ATOM      9  C8  UNK A          49.221   8.695  -6.516  0.00  0.00     0.075 A 
ATOM     10  C9  UNK A          48.450   8.494  -7.661  0.00  0.00     0.071 A 
ATOM     11  C11 UNK A          47.662   9.531  -8.164  0.00  0.00     0.074 A 
ENDROOT
BRANCH   5  12
ATOM     12  C4  UNK A          50.851  11.299  -2.906  0.00  0.00     0.004 A 
ATOM     13  C10 UNK A          50.314  11.087  -1.635  0.00  0.00     0.053 A 
ATOM     14  C13 UNK A          51.145  11.097  -0.516  0.00  0.00     0.099 A 
ATOM     15  C15 UNK A          52.514  11.322  -0.665  0.00  0.00     0.098 A 
ATOM     16  C14 UNK A          53.051  11.535  -1.935  0.00  0.00     0.040 A 
ATOM     17  C12 UNK A          52.220  11.524  -3.055  0.00  0.00     0.017 A 
BRANCH  14  18
ATOM     18  O6  UNK A          50.610  10.889   0.719  0.00  0.00    -0.358 OA
ATOM     19  H9  UNK A          51.319  10.831   1.379  0.00  0.00     0.217 HD
ENDBRANCH  14  18
BRANCH  15  20
ATOM     20  O7  UNK A          53.336  11.333   0.421  0.00  0.00    -0.358 OA
ATOM     21  H10 UNK A          53.775  12.196   0.491  0.00  0.00     0.217 HD
ENDBRANCH  15  20
ENDBRANCH   5  12
BRANCH   6  22
ATOM     22  O2  UNK A          49.308  13.571  -3.810  0.00  0.00    -0.355 OA
ATOM     23  H6  UNK A          49.476  14.290  -4.440  0.00  0.00     0.218 HD
ENDBRANCH   6  22
BRANCH   8  24
ATOM     24  O3  UNK A          46.855  11.747  -8.059  0.00  0.00    -0.360 OA
ATOM     25  H7  UNK A          47.369  12.556  -8.203  0.00  0.00     0.217 HD
ENDBRANCH   8  24
BRANCH  10  26
ATOM     26  O5  UNK A          48.467   7.287  -8.288  0.00  0.00    -0.361 OA
ATOM     27  H8  UNK A          48.959   7.371  -9.123  0.00  0.00     0.217 HD
ENDBRANCH  10  26
TORSDOF 6
ENDMDL
MODEL 10
REMARK VINA RESULT:      -6.0      9.678     12.098
REMARK  6 active torsions:
REMARK  status: ('A' for Active; 'I' for Inactive)
REMARK    1  A    between atoms: O2_2  and  C5_12 
REMARK    2  A    between atoms: O3_3  and  C7_14 
REMARK    3  A    between atoms: O5_5  and  C9_16 
REMARK    4  A    between atoms: O6_6  and  C13_20 
REMARK    5  A    between atoms: O7_7  and  C15_22 
REMARK    6  A    between atoms: C3_10  and  C4_11 
ROOT
ATOM      1  O1  UNK A          48.652   9.488  -7.032  0.00  0.00    -0.306 OA
ATOM      2  O4  UNK A          45.929   9.539 -10.064  0.00  0.00    -0.284 OA
ATOM      3  C1  UNK A          47.599   8.349  -8.899  0.00  0.00     0.084 A 
ATOM      4  C2  UNK A          48.511   8.395  -7.847  0.00  0.00     0.096 A 
ATOM      5  C3  UNK A          47.841  10.590  -7.258  0.00  0.00     0.123 A 
ATOM      6  C5  UNK A          46.928  10.677  -8.242  0.00  0.00     0.152 A 
ATOM      7  C6  UNK A          46.745   9.520  -9.152  0.00  0.00     0.223 A 
ATOM      8  C7  UNK A          47.500   7.207  -9.698  0.00  0.00     0.085 A 
ATOM      9  C8  UNK A          49.334   7.298  -7.589  0.00  0.00     0.075 A 
ATOM     10  C9  UNK A          49.239   6.156  -8.384  0.00  0.00     0.071 A 
ATOM     11  C11 UNK A          48.323   6.112  -9.436  0.00  0.00     0.074 A 
ENDROOT
BRANCH   5  12
ATOM     12  C4  UNK A          48.093  11.693  -6.313  0.00  0.00     0.004 A 
ATOM     13  C10 UNK A          48.940  12.741  -6.673  0.00  0.00     0.053 A 
ATOM     14  C13 UNK A          49.177  13.785  -5.780  0.00  0.00     0.099 A 
ATOM     15  C15 UNK A          48.569  13.780  -4.524  0.00  0.00     0.098 A 
ATOM     16  C14 UNK A          47.723  12.732  -4.163  0.00  0.00     0.040 A 
ATOM     17  C12 UNK A          47.485  11.688  -5.058  0.00  0.00     0.017 A 
BRANCH  14  18
ATOM     18  O6  UNK A          50.007  14.803  -6.142  0.00  0.00    -0.358 OA
ATOM     19  H9  UNK A          50.826  14.759  -5.624  0.00  0.00     0.217 HD
ENDBRANCH  14  18
BRANCH  15  20
ATOM     20  O7  UNK A          48.793  14.795  -3.643  0.00  0.00    -0.358 OA
ATOM     21  H10 UNK A          49.571  15.303  -3.919  0.00  0.00     0.217 HD
ENDBRANCH  15  20
ENDBRANCH   5  12
BRANCH   6  22
ATOM     22  O2  UNK A          46.160  11.800  -8.460  0.00  0.00    -0.355 OA
ATOM     23  H6  UNK A          46.310  12.445  -7.750  0.00  0.00     0.218 HD
ENDBRANCH   6  22
BRANCH   8  24
ATOM     24  O3  UNK A          46.625   7.111 -10.738  0.00  0.00    -0.360 OA
ATOM     25  H7  UNK A          45.782   7.531 -10.512  0.00  0.00     0.217 HD
ENDBRANCH   8  24
BRANCH  10  26
ATOM     26  O5  UNK A          50.040   5.085  -8.133  0.00  0.00    -0.361 OA
ATOM     27  H8  UNK A          50.955   5.395  -8.018  0.00  0.00     0.217 HD
ENDBRANCH  10  26
TORSDOF 6
ENDMDL
MODEL 11
REMARK VINA RESULT:      -5.9      9.980     12.652
REMARK  6 active torsions:
REMARK  status: ('A' for Active; 'I' for Inactive)
REMARK    1  A    between atoms: O2_2  and  C5_12 
REMARK    2  A    between atoms: O3_3  and  C7_14 
REMARK    3  A    between atoms: O5_5  and  C9_16 
REMARK    4  A    between atoms: O6_6  and  C13_20 
REMARK    5  A    between atoms: O7_7  and  C15_22 
REMARK    6  A    between atoms: C3_10  and  C4_11 
ROOT
ATOM      1  O1  UNK A          48.706  12.408  -8.634  0.00  0.00    -0.306 OA
ATOM      2  O4  UNK A          45.081  11.081  -9.943  0.00  0.00    -0.284 OA
ATOM      3  C1  UNK A          47.200  11.965 -10.485  0.00  0.00     0.084 A 
ATOM      4  C2  UNK A          48.419  12.406  -9.974  0.00  0.00     0.096 A 
ATOM      5  C3  UNK A          47.746  11.937  -7.751  0.00  0.00     0.123 A 
ATOM      6  C5  UNK A          46.529  11.491  -8.114  0.00  0.00     0.152 A 
ATOM      7  C6  UNK A          46.172  11.476  -9.553  0.00  0.00     0.223 A 
ATOM      8  C7  UNK A          46.963  11.988 -11.862  0.00  0.00     0.085 A 
ATOM      9  C8  UNK A          49.408  12.877 -10.838  0.00  0.00     0.075 A 
ATOM     10  C9  UNK A          49.175  12.901 -12.214  0.00  0.00     0.071 A 
ATOM     11  C11 UNK A          47.954  12.458 -12.723  0.00  0.00     0.074 A 
ENDROOT
BRANCH   5  12
ATOM     12  C4  UNK A          48.182  11.992  -6.345  0.00  0.00     0.004 A 
ATOM     13  C10 UNK A          48.160  13.204  -5.654  0.00  0.00     0.053 A 
ATOM     14  C13 UNK A          48.571  13.256  -4.323  0.00  0.00     0.099 A 
ATOM     15  C15 UNK A          49.007  12.096  -3.682  0.00  0.00     0.098 A 
ATOM     16  C14 UNK A          49.029  10.884  -4.372  0.00  0.00     0.040 A 
ATOM     17  C12 UNK A          48.617  10.832  -5.704  0.00  0.00     0.017 A 
BRANCH  14  18
ATOM     18  O6  UNK A          48.546  14.445  -3.659  0.00  0.00    -0.358 OA
ATOM     19  H9  UNK A          49.288  15.000  -3.951  0.00  0.00     0.217 HD
ENDBRANCH  14  18
BRANCH  15  20
ATOM     20  O7  UNK A          49.410  12.134  -2.381  0.00  0.00    -0.358 OA
ATOM     21  H10 UNK A          48.929  12.832  -1.909  0.00  0.00     0.217 HD
ENDBRANCH  15  20
ENDBRANCH   5  12
BRANCH   6  22
ATOM     22  O2  UNK A          45.585  11.060  -7.208  0.00  0.00    -0.355 OA
ATOM     23  H6  UNK A          45.496  10.094  -7.258  0.00  0.00     0.218 HD
ENDBRANCH   6  22
BRANCH   8  24
ATOM     24  O3  UNK A          45.789  11.568 -12.413  0.00  0.00    -0.360 OA
ATOM     25  H7  UNK A          45.427  12.247 -13.001  0.00  0.00     0.217 HD
ENDBRANCH   8  24
BRANCH  10  26
ATOM     26  O5  UNK A          50.139  13.359 -13.058  0.00  0.00    -0.361 OA
ATOM     27  H8  UNK A          51.007  13.257 -12.631  0.00  0.00     0.217 HD
ENDBRANCH  10  26
TORSDOF 6
ENDMDL
MODEL 12
REMARK VINA RESULT:      -5.9     10.461     11.721
REMARK  6 active torsions:
REMARK  status: ('A' for Active; 'I' for Inactive)
REMARK    1  A    between atoms: O2_2  and  C5_12 
REMARK    2  A    between atoms: O3_3  and  C7_14 
REMARK    3  A    between atoms: O5_5  and  C9_16 
REMARK    4  A    between atoms: O6_6  and  C13_20 
REMARK    5  A    between atoms: O7_7  and  C15_22 
REMARK    6  A    between atoms: C3_10  and  C4_11 
ROOT
ATOM      1  O1  UNK A          47.428  11.284  -6.627  0.00  0.00    -0.306 OA
ATOM      2  O4  UNK A          50.454   8.720  -7.563  0.00  0.00    -0.284 OA
ATOM      3  C1  UNK A          49.503  10.198  -5.991  0.00  0.00     0.084 A 
ATOM      4  C2  UNK A          48.441  11.063  -5.731  0.00  0.00     0.096 A 
ATOM      5  C3  UNK A          47.454  10.608  -7.837  0.00  0.00     0.123 A 
ATOM      6  C5  UNK A          48.424   9.754  -8.212  0.00  0.00     0.152 A 
ATOM      7  C6  UNK A          49.544   9.487  -7.278  0.00  0.00     0.223 A 
ATOM      8  C7  UNK A          50.509  10.013  -5.040  0.00  0.00     0.085 A 
ATOM      9  C8  UNK A          48.381  11.750  -4.518  0.00  0.00     0.075 A 
ATOM     10  C9  UNK A          49.384  11.567  -3.566  0.00  0.00     0.071 A 
ATOM     11  C11 UNK A          50.446  10.700  -3.828  0.00  0.00     0.074 A 
ENDROOT
BRANCH   5  12
ATOM     12  C4  UNK A          46.309  10.936  -8.704  0.00  0.00     0.004 A 
ATOM     13  C10 UNK A          45.087  10.286  -8.524  0.00  0.00     0.053 A 
ATOM     14  C13 UNK A          44.003  10.597  -9.344  0.00  0.00     0.099 A 
ATOM     15  C15 UNK A          44.141  11.558 -10.346  0.00  0.00     0.098 A 
ATOM     16  C14 UNK A          45.361  12.208 -10.527  0.00  0.00     0.040 A 
ATOM     17  C12 UNK A          46.446  11.897  -9.706  0.00  0.00     0.017 A 
BRANCH  14  18
ATOM     18  O6  UNK A          42.817   9.955  -9.159  0.00  0.00    -0.358 OA
ATOM     19  H9  UNK A          42.939   9.205  -8.555  0.00  0.00     0.217 HD
ENDBRANCH  14  18
BRANCH  15  20
ATOM     20  O7  UNK A          43.088  11.872 -11.153  0.00  0.00    -0.358 OA
ATOM     21  H10 UNK A          43.314  12.639 -11.702  0.00  0.00     0.217 HD
ENDBRANCH  15  20
ENDBRANCH   5  12
BRANCH   6  22
ATOM     22  O2  UNK A          48.438   9.122  -9.437  0.00  0.00    -0.355 OA
ATOM     23  H6  UNK A          48.029   9.694 -10.108  0.00  0.00     0.218 HD
ENDBRANCH   6  22
BRANCH   8  24
ATOM     24  O3  UNK A          51.568   9.179  -5.243  0.00  0.00    -0.360 OA
ATOM     25  H7  UNK A          51.811   9.160  -6.181  0.00  0.00     0.217 HD
ENDBRANCH   8  24
BRANCH  10  26
ATOM     26  O5  UNK A          49.328  12.236  -2.383  0.00  0.00    -0.361 OA
ATOM     27  H8  UNK A          50.078  11.961  -1.828  0.00  0.00     0.217 HD
ENDBRANCH  10  26
TORSDOF 6
ENDMDL
MODEL 13
REMARK VINA RESULT:      -5.8     10.453     12.064
REMARK  6 active torsions:
REMARK  status: ('A' for Active; 'I' for Inactive)
REMARK    1  A    between atoms: O2_2  and  C5_12 
REMARK    2  A    between atoms: O3_3  and  C7_14 
REMARK    3  A    between atoms: O5_5  and  C9_16 
REMARK    4  A    between atoms: O6_6  and  C13_20 
REMARK    5  A    between atoms: O7_7  and  C15_22 
REMARK    6  A    between atoms: C3_10  and  C4_11 
ROOT
ATOM      1  O1  UNK A          48.775  10.440  -5.658  0.00  0.00    -0.306 OA
ATOM      2  O4  UNK A          51.170  13.611  -6.562  0.00  0.00    -0.284 OA
ATOM      3  C1  UNK A          50.666  11.847  -5.080  0.00  0.00     0.084 A 
ATOM      4  C2  UNK A          49.811  10.776  -4.827  0.00  0.00     0.096 A 
ATOM      5  C3  UNK A          48.578  11.190  -6.807  0.00  0.00     0.123 A 
ATOM      6  C5  UNK A          49.325  12.251  -7.162  0.00  0.00     0.152 A 
ATOM      7  C6  UNK A          50.454  12.655  -6.290  0.00  0.00     0.223 A 
ATOM      8  C7  UNK A          51.706  12.144  -4.195  0.00  0.00     0.085 A 
ATOM      9  C8  UNK A          49.990   9.996  -3.684  0.00  0.00     0.075 A 
ATOM     10  C9  UNK A          51.027  10.289  -2.798  0.00  0.00     0.071 A 
ATOM     11  C11 UNK A          51.883  11.362  -3.054  0.00  0.00     0.074 A 
ENDROOT
BRANCH   5  12
ATOM     12  C4  UNK A          47.434  10.723  -7.609  0.00  0.00     0.004 A 
ATOM     13  C10 UNK A          46.227  11.422  -7.580  0.00  0.00     0.053 A 
ATOM     14  C13 UNK A          45.146  10.981  -8.341  0.00  0.00     0.099 A 
ATOM     15  C15 UNK A          45.269   9.838  -9.131  0.00  0.00     0.098 A 
ATOM     16  C14 UNK A          46.475   9.138  -9.161  0.00  0.00     0.040 A 
ATOM     17  C12 UNK A          47.558   9.580  -8.401  0.00  0.00     0.017 A 
BRANCH  14  18
ATOM     18  O6  UNK A          43.972  11.671  -8.302  0.00  0.00    -0.358 OA
ATOM     19  H9  UNK A          43.260  11.091  -7.986  0.00  0.00     0.217 HD
ENDBRANCH  14  18
BRANCH  15  20
ATOM     20  O7  UNK A          44.220   9.397  -9.880  0.00  0.00    -0.358 OA
ATOM     21  H10 UNK A          43.595  10.124 -10.027  0.00  0.00     0.217 HD
ENDBRANCH  15  20
ENDBRANCH   5  12
BRANCH   6  22
ATOM     22  O2  UNK A          49.082  12.997  -8.295  0.00  0.00    -0.355 OA
ATOM     23  H6  UNK A          48.806  13.894  -8.047  0.00  0.00     0.218 HD
ENDBRANCH   6  22
BRANCH   8  24
ATOM     24  O3  UNK A          52.569  13.179  -4.396  0.00  0.00    -0.360 OA
ATOM     25  H7  UNK A          53.399  13.027  -3.921  0.00  0.00     0.217 HD
ENDBRANCH   8  24
BRANCH  10  26
ATOM     26  O5  UNK A          51.204   9.529  -1.683  0.00  0.00    -0.361 OA
ATOM     27  H8  UNK A          51.721   8.739  -1.918  0.00  0.00     0.217 HD
ENDBRANCH  10  26
TORSDOF 6
ENDMDL
MODEL 14
REMARK VINA RESULT:      -5.8     10.525     12.992
REMARK  6 active torsions:
REMARK  status: ('A' for Active; 'I' for Inactive)
REMARK    1  A    between atoms: O2_2  and  C5_12 
REMARK    2  A    between atoms: O3_3  and  C7_14 
REMARK    3  A    between atoms: O5_5  and  C9_16 
REMARK    4  A    between atoms: O6_6  and  C13_20 
REMARK    5  A    between atoms: O7_7  and  C15_22 
REMARK    6  A    between atoms: C3_10  and  C4_11 
ROOT
ATOM      1  O1  UNK A          49.282  12.335  -7.785  0.00  0.00    -0.306 OA
ATOM      2  O4  UNK A          50.363  11.859  -3.885  0.00  0.00    -0.284 OA
ATOM      3  C1  UNK A          50.844  12.809  -5.989  0.00  0.00     0.084 A 
ATOM      4  C2  UNK A          50.420  12.932  -7.311  0.00  0.00     0.096 A 
ATOM      5  C3  UNK A          48.512  11.587  -6.908  0.00  0.00     0.123 A 
ATOM      6  C5  UNK A          48.813  11.384  -5.612  0.00  0.00     0.152 A 
ATOM      7  C6  UNK A          50.038  12.007  -5.056  0.00  0.00     0.223 A 
ATOM      8  C7  UNK A          52.015  13.440  -5.562  0.00  0.00     0.085 A 
ATOM      9  C8  UNK A          51.169  13.686  -8.216  0.00  0.00     0.075 A 
ATOM     10  C9  UNK A          52.339  14.318  -7.793  0.00  0.00     0.071 A 
ATOM     11  C11 UNK A          52.760  14.194  -6.469  0.00  0.00     0.074 A 
ENDROOT
BRANCH   5  12
ATOM     12  C4  UNK A          47.319  11.003  -7.544  0.00  0.00     0.004 A 
ATOM     13  C10 UNK A          47.395   9.750  -8.154  0.00  0.00     0.053 A 
ATOM     14  C13 UNK A          46.265   9.196  -8.755  0.00  0.00     0.099 A 
ATOM     15  C15 UNK A          45.058   9.896  -8.748  0.00  0.00     0.098 A 
ATOM     16  C14 UNK A          44.981  11.148  -8.138  0.00  0.00     0.040 A 
ATOM     17  C12 UNK A          46.111  11.702  -7.536  0.00  0.00     0.017 A 
BRANCH  14  18
ATOM     18  O6  UNK A          46.352   7.974  -9.348  0.00  0.00    -0.358 OA
ATOM     19  H9  UNK A          45.463   7.654  -9.573  0.00  0.00     0.217 HD
ENDBRANCH  14  18
BRANCH  15  20
ATOM     20  O7  UNK A          43.947   9.365  -9.330  0.00  0.00    -0.358 OA
ATOM     21  H10 UNK A          43.656   9.934 -10.060  0.00  0.00     0.217 HD
ENDBRANCH  15  20
ENDBRANCH   5  12
BRANCH   6  22
ATOM     22  O2  UNK A          48.043  10.608  -4.773  0.00  0.00    -0.355 OA
ATOM     23  H6  UNK A          47.770  11.128  -4.000  0.00  0.00     0.218 HD
ENDBRANCH   6  22
BRANCH   8  24
ATOM     24  O3  UNK A          52.472  13.352  -4.282  0.00  0.00    -0.360 OA
ATOM     25  H7  UNK A          51.803  13.673  -3.658  0.00  0.00     0.217 HD
ENDBRANCH   8  24
BRANCH  10  26
ATOM     26  O5  UNK A          53.069  15.053  -8.674  0.00  0.00    -0.361 OA
ATOM     27  H8  UNK A          53.870  14.556  -8.914  0.00  0.00     0.217 HD
ENDBRANCH  10  26
TORSDOF 6
ENDMDL
MODEL 15
REMARK VINA RESULT:      -5.7     10.306     12.839
REMARK  6 active torsions:
REMARK  status: ('A' for Active; 'I' for Inactive)
REMARK    1  A    between atoms: O2_2  and  C5_12 
REMARK    2  A    between atoms: O3_3  and  C7_14 
REMARK    3  A    between atoms: O5_5  and  C9_16 
REMARK    4  A    between atoms: O6_6  and  C13_20 
REMARK    5  A    between atoms: O7_7  and  C15_22 
REMARK    6  A    between atoms: C3_10  and  C4_11 
ROOT
ATOM      1  O1  UNK A          50.110   9.443  -6.708  0.00  0.00    -0.306 OA
ATOM      2  O4  UNK A          47.169   8.044  -9.158  0.00  0.00    -0.284 OA
ATOM      3  C1  UNK A          49.343   7.766  -8.286  0.00  0.00     0.084 A 
ATOM      4  C2  UNK A          50.308   8.296  -7.432  0.00  0.00     0.096 A 
ATOM      5  C3  UNK A          48.892  10.095  -6.820  0.00  0.00     0.123 A 
ATOM      6  C5  UNK A          47.882   9.692  -7.613  0.00  0.00     0.152 A 
ATOM      7  C6  UNK A          48.053   8.460  -8.420  0.00  0.00     0.223 A 
ATOM      8  C7  UNK A          49.602   6.594  -9.000  0.00  0.00     0.085 A 
ATOM      9  C8  UNK A          51.540   7.658  -7.289  0.00  0.00     0.075 A 
ATOM     10  C9  UNK A          51.802   6.487  -8.001  0.00  0.00     0.071 A 
ATOM     11  C11 UNK A          50.834   5.957  -8.855  0.00  0.00     0.074 A 
ENDROOT
BRANCH   5  12
ATOM     12  C4  UNK A          48.810  11.309  -5.990  0.00  0.00     0.004 A 
ATOM     13  C10 UNK A          49.391  12.498  -6.433  0.00  0.00     0.053 A 
ATOM     14  C13 UNK A          49.312  13.648  -5.648  0.00  0.00     0.099 A 
ATOM     15  C15 UNK A          48.655  13.609  -4.418  0.00  0.00     0.098 A 
ATOM     16  C14 UNK A          48.074  12.421  -3.975  0.00  0.00     0.040 A 
ATOM     17  C12 UNK A          48.152  11.271  -4.760  0.00  0.00     0.017 A 
BRANCH  14  18
ATOM     18  O6  UNK A          49.884  14.802  -6.090  0.00  0.00    -0.358 OA
ATOM     19  H9  UNK A          49.645  15.535  -5.499  0.00  0.00     0.217 HD
ENDBRANCH  14  18
BRANCH  15  20
ATOM     20  O7  UNK A          48.571  14.727  -3.643  0.00  0.00    -0.358 OA
ATOM     21  H10 UNK A          49.061  14.590  -2.817  0.00  0.00     0.217 HD
ENDBRANCH  15  20
ENDBRANCH   5  12
BRANCH   6  22
ATOM     22  O2  UNK A          46.694  10.382  -7.728  0.00  0.00    -0.355 OA
ATOM     23  H6  UNK A          46.866  11.288  -8.032  0.00  0.00     0.218 HD
ENDBRANCH   6  22
BRANCH   8  24
ATOM     24  O3  UNK A          48.693   6.034  -9.848  0.00  0.00    -0.360 OA
ATOM     25  H7  UNK A          48.432   5.155  -9.534  0.00  0.00     0.217 HD
ENDBRANCH   8  24
BRANCH  10  26
ATOM     26  O5  UNK A          53.003   5.863  -7.864  0.00  0.00    -0.361 OA
ATOM     27  H8  UNK A          52.971   5.285  -7.082  0.00  0.00     0.217 HD
ENDBRANCH  10  26
TORSDOF 6
ENDMDL
MODEL 16
REMARK VINA RESULT:      -5.7     10.487     11.870
REMARK  6 active torsions:
REMARK  status: ('A' for Active; 'I' for Inactive)
REMARK    1  A    between atoms: O2_2  and  C5_12 
REMARK    2  A    between atoms: O3_3  and  C7_14 
REMARK    3  A    between atoms: O5_5  and  C9_16 
REMARK    4  A    between atoms: O6_6  and  C13_20 
REMARK    5  A    between atoms: O7_7  and  C15_22 
REMARK    6  A    between atoms: C3_10  and  C4_11 
ROOT
ATOM      1  O1  UNK A          47.431  11.262  -6.407  0.00  0.00    -0.306 OA
ATOM      2  O4  UNK A          51.009  11.338  -8.357  0.00  0.00    -0.284 OA
ATOM      3  C1  UNK A          49.845  11.497  -6.312  0.00  0.00     0.084 A 
ATOM      4  C2  UNK A          48.591  11.462  -5.705  0.00  0.00     0.096 A 
ATOM      5  C3  UNK A          47.511  11.075  -7.778  0.00  0.00     0.123 A 
ATOM      6  C5  UNK A          48.656  11.094  -8.485  0.00  0.00     0.152 A 
ATOM      7  C6  UNK A          49.935  11.312  -7.769  0.00  0.00     0.223 A 
ATOM      8  C7  UNK A          50.994  11.706  -5.545  0.00  0.00     0.085 A 
ATOM      9  C8  UNK A          48.479  11.637  -4.325  0.00  0.00     0.075 A 
ATOM     10  C9  UNK A          49.624  11.846  -3.556  0.00  0.00     0.071 A 
ATOM     11  C11 UNK A          50.879  11.880  -4.166  0.00  0.00     0.074 A 
ENDROOT
BRANCH   5  12
ATOM     12  C4  UNK A          46.195  10.871  -8.408  0.00  0.00     0.004 A 
ATOM     13  C10 UNK A          45.697   9.580  -8.585  0.00  0.00     0.053 A 
ATOM     14  C13 UNK A          44.451   9.387  -9.180  0.00  0.00     0.099 A 
ATOM     15  C15 UNK A          43.702  10.487  -9.602  0.00  0.00     0.098 A 
ATOM     16  C14 UNK A          44.200  11.778  -9.426  0.00  0.00     0.040 A 
ATOM     17  C12 UNK A          45.446  11.970  -8.829  0.00  0.00     0.017 A 
BRANCH  14  18
ATOM     18  O6  UNK A          43.975   8.122  -9.348  0.00  0.00    -0.358 OA
ATOM     19  H9  UNK A          43.014   8.148  -9.485  0.00  0.00     0.217 HD
ENDBRANCH  14  18
BRANCH  15  20
ATOM     20  O7  UNK A          42.483  10.312 -10.184  0.00  0.00    -0.358 OA
ATOM     21  H10 UNK A          42.499  10.659 -11.089  0.00  0.00     0.217 HD
ENDBRANCH  15  20
ENDBRANCH   5  12
BRANCH   6  22
ATOM     22  O2  UNK A          48.698  10.937  -9.853  0.00  0.00    -0.355 OA
ATOM     23  H6  UNK A          47.795  10.881 -10.207  0.00  0.00     0.218 HD
ENDBRANCH   6  22
BRANCH   8  24
ATOM     24  O3  UNK A          52.242  11.749  -6.089  0.00  0.00    -0.360 OA
ATOM     25  H7  UNK A          52.471  12.655  -6.345  0.00  0.00     0.217 HD
ENDBRANCH   8  24
BRANCH  10  26
ATOM     26  O5  UNK A          49.517  12.016  -2.211  0.00  0.00    -0.361 OA
ATOM     27  H8  UNK A          50.327  11.687  -1.785  0.00  0.00     0.217 HD
ENDBRANCH  10  26
TORSDOF 6
ENDMDL
