MODEL 1
REMARK VINA RESULT:      -7.5      0.000      0.000
REMARK  6 active torsions:
REMARK  status: ('A' for Active; 'I' for Inactive)
REMARK    1  A    between atoms: O2_2  and  C5_12 
REMARK    2  A    between atoms: O3_3  and  C7_14 
REMARK    3  A    between atoms: O5_5  and  C9_16 
REMARK    4  A    between atoms: O6_6  and  C13_20 
REMARK    5  A    between atoms: O7_7  and  C15_22 
REMARK    6  A    between atoms: C3_10  and  C4_11 
ROOT
ATOM      1  O1  UNK A          39.643  15.114   0.034  0.00  0.00    -0.306 OA
ATOM      2  O4  UNK A          41.758  15.710  -3.398  0.00  0.00    -0.284 OA
ATOM      3  C1  UNK A          40.213  16.558  -1.831  0.00  0.00     0.084 A 
ATOM      4  C2  UNK A          39.518  16.292  -0.653  0.00  0.00     0.096 A 
ATOM      5  C3  UNK A          40.510  14.150  -0.457  0.00  0.00     0.123 A 
ATOM      6  C5  UNK A          41.233  14.278  -1.586  0.00  0.00     0.152 A 
ATOM      7  C6  UNK A          41.125  15.535  -2.365  0.00  0.00     0.223 A 
ATOM      8  C7  UNK A          40.044  17.778  -2.490  0.00  0.00     0.085 A 
ATOM      9  C8  UNK A          38.645  17.247  -0.128  0.00  0.00     0.075 A 
ATOM     10  C9  UNK A          38.474  18.466  -0.783  0.00  0.00     0.071 A 
ATOM     11  C11 UNK A          39.172  18.730  -1.962  0.00  0.00     0.074 A 
ENDROOT
BRANCH   5  12
ATOM     12  C4  UNK A          40.551  12.935   0.375  0.00  0.00     0.004 A 
ATOM     13  C10 UNK A          40.349  13.024   1.752  0.00  0.00     0.053 A 
ATOM     14  C13 UNK A          40.386  11.874   2.539  0.00  0.00     0.099 A 
ATOM     15  C15 UNK A          40.629  10.633   1.949  0.00  0.00     0.098 A 
ATOM     16  C14 UNK A          40.832  10.543   0.573  0.00  0.00     0.040 A 
ATOM     17  C12 UNK A          40.793  11.694  -0.215  0.00  0.00     0.017 A 
BRANCH  14  18
ATOM     18  O6  UNK A          40.188  11.973   3.883  0.00  0.00    -0.358 OA
ATOM     19  H9  UNK A          39.373  12.472   4.059  0.00  0.00     0.217 HD
ENDBRANCH  14  18
BRANCH  15  20
ATOM     20  O7  UNK A          40.667   9.502   2.708  0.00  0.00    -0.358 OA
ATOM     21  H10 UNK A          40.803   8.729   2.137  0.00  0.00     0.217 HD
ENDBRANCH  15  20
ENDBRANCH   5  12
BRANCH   6  22
ATOM     22  O2  UNK A          42.062  13.287  -2.065  0.00  0.00    -0.355 OA
ATOM     23  H6  UNK A          41.836  12.439  -1.650  0.00  0.00     0.218 HD
ENDBRANCH   6  22
BRANCH   8  24
ATOM     24  O3  UNK A          40.700  18.087  -3.644  0.00  0.00    -0.360 OA
ATOM     25  H7  UNK A          40.893  19.037  -3.682  0.00  0.00     0.217 HD
ENDBRANCH   8  24
BRANCH  10  26
ATOM     26  O5  UNK A          37.624  19.398  -0.272  0.00  0.00    -0.361 OA
ATOM     27  H8  UNK A          36.926  19.580  -0.924  0.00  0.00     0.217 HD
ENDBRANCH  10  26
TORSDOF 6
ENDMDL
MODEL 2
REMARK VINA RESULT:      -7.2      1.180      6.431
REMARK  6 active torsions:
REMARK  status: ('A' for Active; 'I' for Inactive)
REMARK    1  A    between atoms: O2_2  and  C5_12 
REMARK    2  A    between atoms: O3_3  and  C7_14 
REMARK    3  A    between atoms: O5_5  and  C9_16 
REMARK    4  A    between atoms: O6_6  and  C13_20 
REMARK    5  A    between atoms: O7_7  and  C15_22 
REMARK    6  A    between atoms: C3_10  and  C4_11 
ROOT
ATOM      1  O1  UNK A          39.730  14.412   0.198  0.00  0.00    -0.306 OA
ATOM      2  O4  UNK A          42.326  12.765  -2.477  0.00  0.00    -0.284 OA
ATOM      3  C1  UNK A          40.968  12.472  -0.572  0.00  0.00     0.084 A 
ATOM      4  C2  UNK A          40.087  13.094   0.310  0.00  0.00     0.096 A 
ATOM      5  C3  UNK A          40.259  15.154  -0.847  0.00  0.00     0.123 A 
ATOM      6  C5  UNK A          41.125  14.676  -1.760  0.00  0.00     0.152 A 
ATOM      7  C6  UNK A          41.543  13.256  -1.675  0.00  0.00     0.223 A 
ATOM      8  C7  UNK A          41.296  11.124  -0.407  0.00  0.00     0.085 A 
ATOM      9  C8  UNK A          39.530  12.371   1.366  0.00  0.00     0.075 A 
ATOM     10  C9  UNK A          39.855  11.025   1.534  0.00  0.00     0.071 A 
ATOM     11  C11 UNK A          40.737  10.403   0.649  0.00  0.00     0.074 A 
ENDROOT
BRANCH   5  12
ATOM     12  C4  UNK A          39.795  16.553  -0.852  0.00  0.00     0.004 A 
ATOM     13  C10 UNK A          38.982  17.023   0.180  0.00  0.00     0.053 A 
ATOM     14  C13 UNK A          38.545  18.347   0.175  0.00  0.00     0.099 A 
ATOM     15  C15 UNK A          38.918  19.201  -0.863  0.00  0.00     0.098 A 
ATOM     16  C14 UNK A          39.730  18.731  -1.895  0.00  0.00     0.040 A 
ATOM     17  C12 UNK A          40.169  17.407  -1.890  0.00  0.00     0.017 A 
BRANCH  14  18
ATOM     18  O6  UNK A          37.750  18.794   1.187  0.00  0.00    -0.358 OA
ATOM     19  H9  UNK A          37.434  19.690   0.984  0.00  0.00     0.217 HD
ENDBRANCH  14  18
BRANCH  15  20
ATOM     20  O7  UNK A          38.498  20.497  -0.878  0.00  0.00    -0.358 OA
ATOM     21  H10 UNK A          39.232  21.077  -1.132  0.00  0.00     0.217 HD
ENDBRANCH  15  20
ENDBRANCH   5  12
BRANCH   6  22
ATOM     22  O2  UNK A          41.658  15.450  -2.768  0.00  0.00    -0.355 OA
ATOM     23  H6  UNK A          41.468  15.045  -3.630  0.00  0.00     0.218 HD
ENDBRANCH   6  22
BRANCH   8  24
ATOM     24  O3  UNK A          42.151  10.468  -1.241  0.00  0.00    -0.360 OA
ATOM     25  H7  UNK A          43.023  10.891  -1.236  0.00  0.00     0.217 HD
ENDBRANCH   8  24
BRANCH  10  26
ATOM     26  O5  UNK A          39.313  10.318   2.562  0.00  0.00    -0.361 OA
ATOM     27  H8  UNK A          39.684  10.644   3.400  0.00  0.00     0.217 HD
ENDBRANCH  10  26
TORSDOF 6
ENDMDL
MODEL 3
REMARK VINA RESULT:      -7.0      2.080      3.101
REMARK  6 active torsions:
REMARK  status: ('A' for Active; 'I' for Inactive)
REMARK    1  A    between atoms: O2_2  and  C5_12 
REMARK    2  A    between atoms: O3_3  and  C7_14 
REMARK    3  A    between atoms: O5_5  and  C9_16 
REMARK    4  A    between atoms: O6_6  and  C13_20 
REMARK    5  A    between atoms: O7_7  and  C15_22 
REMARK    6  A    between atoms: C3_10  and  C4_11 
ROOT
ATOM      1  O1  UNK A          39.300  17.445  -0.154  0.00  0.00    -0.306 OA
ATOM      2  O4  UNK A          40.635  18.962  -3.693  0.00  0.00    -0.284 OA
ATOM      3  C1  UNK A          39.805  19.382  -1.526  0.00  0.00     0.084 A 
ATOM      4  C2  UNK A          39.358  18.801  -0.341  0.00  0.00     0.096 A 
ATOM      5  C3  UNK A          39.718  16.616  -1.184  0.00  0.00     0.123 A 
ATOM      6  C5  UNK A          40.163  17.049  -2.378  0.00  0.00     0.152 A 
ATOM      7  C6  UNK A          40.237  18.509  -2.628  0.00  0.00     0.223 A 
ATOM      8  C7  UNK A          39.840  20.772  -1.660  0.00  0.00     0.085 A 
ATOM      9  C8  UNK A          38.940  19.608   0.718  0.00  0.00     0.075 A 
ATOM     10  C9  UNK A          38.974  20.997   0.588  0.00  0.00     0.071 A 
ATOM     11  C11 UNK A          39.423  21.577  -0.600  0.00  0.00     0.074 A 
ENDROOT
BRANCH   5  12
ATOM     12  C4  UNK A          39.605  15.185  -0.853  0.00  0.00     0.004 A 
ATOM     13  C10 UNK A          40.654  14.533  -0.204  0.00  0.00     0.053 A 
ATOM     14  C13 UNK A          40.547  13.179   0.111  0.00  0.00     0.099 A 
ATOM     15  C15 UNK A          39.390  12.475  -0.226  0.00  0.00     0.098 A 
ATOM     16  C14 UNK A          38.341  13.126  -0.876  0.00  0.00     0.040 A 
ATOM     17  C12 UNK A          38.448  14.481  -1.189  0.00  0.00     0.017 A 
BRANCH  14  18
ATOM     18  O6  UNK A          41.577  12.553   0.743  0.00  0.00    -0.358 OA
ATOM     19  H9  UNK A          41.716  12.952   1.618  0.00  0.00     0.217 HD
ENDBRANCH  14  18
BRANCH  15  20
ATOM     20  O7  UNK A          39.273  11.152   0.077  0.00  0.00    -0.358 OA
ATOM     21  H10 UNK A          38.548  11.023   0.708  0.00  0.00     0.217 HD
ENDBRANCH  15  20
ENDBRANCH   5  12
BRANCH   6  22
ATOM     22  O2  UNK A          40.540  16.198  -3.394  0.00  0.00    -0.355 OA
ATOM     23  H6  UNK A          40.403  15.276  -3.121  0.00  0.00     0.218 HD
ENDBRANCH   6  22
BRANCH   8  24
ATOM     24  O3  UNK A          40.269  21.390  -2.796  0.00  0.00    -0.360 OA
ATOM     25  H7  UNK A          40.770  22.191  -2.580  0.00  0.00     0.217 HD
ENDBRANCH   8  24
BRANCH  10  26
ATOM     26  O5  UNK A          38.568  21.786   1.619  0.00  0.00    -0.361 OA
ATOM     27  H8  UNK A          38.626  21.279   2.447  0.00  0.00     0.217 HD
ENDBRANCH  10  26
TORSDOF 6
ENDMDL
MODEL 4
REMARK VINA RESULT:      -6.8     15.001     16.058
REMARK  6 active torsions:
REMARK  status: ('A' for Active; 'I' for Inactive)
REMARK    1  A    between atoms: O2_2  and  C5_12 
REMARK    2  A    between atoms: O3_3  and  C7_14 
REMARK    3  A    between atoms: O5_5  and  C9_16 
REMARK    4  A    between atoms: O6_6  and  C13_20 
REMARK    5  A    between atoms: O7_7  and  C15_22 
REMARK    6  A    between atoms: C3_10  and  C4_11 
ROOT
ATOM      1  O1  UNK A          43.570   1.873   7.600  0.00  0.00    -0.306 OA
ATOM      2  O4  UNK A          44.079   4.906  10.274  0.00  0.00    -0.284 OA
ATOM      3  C1  UNK A          45.039   3.500   8.642  0.00  0.00     0.084 A 
ATOM      4  C2  UNK A          44.800   2.459   7.747  0.00  0.00     0.096 A 
ATOM      5  C3  UNK A          42.515   2.346   8.366  0.00  0.00     0.123 A 
ATOM      6  C5  UNK A          42.615   3.338   9.270  0.00  0.00     0.152 A 
ATOM      7  C6  UNK A          43.928   3.998   9.467  0.00  0.00     0.223 A 
ATOM      8  C7  UNK A          46.315   4.058   8.750  0.00  0.00     0.085 A 
ATOM      9  C8  UNK A          45.838   1.967   6.955  0.00  0.00     0.075 A 
ATOM     10  C9  UNK A          47.114   2.522   7.060  0.00  0.00     0.071 A 
ATOM     11  C11 UNK A          47.351   3.565   7.957  0.00  0.00     0.074 A 
ENDROOT
BRANCH   5  12
ATOM     12  C4  UNK A          41.253   1.632   8.110  0.00  0.00     0.004 A 
ATOM     13  C10 UNK A          40.351   2.122   7.166  0.00  0.00     0.053 A 
ATOM     14  C13 UNK A          39.157   1.445   6.923  0.00  0.00     0.099 A 
ATOM     15  C15 UNK A          38.862   0.277   7.627  0.00  0.00     0.098 A 
ATOM     16  C14 UNK A          39.763  -0.214   8.571  0.00  0.00     0.040 A 
ATOM     17  C12 UNK A          40.958   0.463   8.813  0.00  0.00     0.017 A 
BRANCH  14  18
ATOM     18  O6  UNK A          38.283   1.934   5.999  0.00  0.00    -0.358 OA
ATOM     19  H9  UNK A          37.768   1.206   5.617  0.00  0.00     0.217 HD
ENDBRANCH  14  18
BRANCH  15  20
ATOM     20  O7  UNK A          37.699  -0.395   7.398  0.00  0.00    -0.358 OA
ATOM     21  H10 UNK A          37.230   0.008   6.650  0.00  0.00     0.217 HD
ENDBRANCH  15  20
ENDBRANCH   5  12
BRANCH   6  22
ATOM     22  O2  UNK A          41.554   3.764  10.040  0.00  0.00    -0.355 OA
ATOM     23  H6  UNK A          40.835   3.111  10.001  0.00  0.00     0.218 HD
ENDBRANCH   6  22
BRANCH   8  24
ATOM     24  O3  UNK A          46.601   5.077   9.608  0.00  0.00    -0.360 OA
ATOM     25  H7  UNK A          47.225   5.698   9.203  0.00  0.00     0.217 HD
ENDBRANCH   8  24
BRANCH  10  26
ATOM     26  O5  UNK A          48.128   2.045   6.289  0.00  0.00    -0.361 OA
ATOM     27  H8  UNK A          47.767   1.765   5.430  0.00  0.00     0.217 HD
ENDBRANCH  10  26
TORSDOF 6
ENDMDL
MODEL 5
REMARK VINA RESULT:      -6.7      1.882      2.676
REMARK  6 active torsions:
REMARK  status: ('A' for Active; 'I' for Inactive)
REMARK    1  A    between atoms: O2_2  and  C5_12 
REMARK    2  A    between atoms: O3_3  and  C7_14 
REMARK    3  A    between atoms: O5_5  and  C9_16 
REMARK    4  A    between atoms: O6_6  and  C13_20 
REMARK    5  A    between atoms: O7_7  and  C15_22 
REMARK    6  A    between atoms: C3_10  and  C4_11 
ROOT
ATOM      1  O1  UNK A          39.396  16.346  -0.217  0.00  0.00    -0.306 OA
ATOM      2  O4  UNK A          40.593  18.769  -3.267  0.00  0.00    -0.284 OA
ATOM      3  C1  UNK A          39.420  18.550  -1.233  0.00  0.00     0.084 A 
ATOM      4  C2  UNK A          39.042  17.670  -0.221  0.00  0.00     0.096 A 
ATOM      5  C3  UNK A          40.175  15.866  -1.258  0.00  0.00     0.123 A 
ATOM      6  C5  UNK A          40.599  16.608  -2.298  0.00  0.00     0.152 A 
ATOM      7  C6  UNK A          40.235  18.044  -2.348  0.00  0.00     0.223 A 
ATOM      8  C7  UNK A          39.028  19.890  -1.185  0.00  0.00     0.085 A 
ATOM      9  C8  UNK A          38.267  18.125   0.846  0.00  0.00     0.075 A 
ATOM     10  C9  UNK A          37.873  19.463   0.898  0.00  0.00     0.071 A 
ATOM     11  C11 UNK A          38.254  20.343  -0.116  0.00  0.00     0.074 A 
ENDROOT
BRANCH   5  12
ATOM     12  C4  UNK A          40.484  14.431  -1.132  0.00  0.00     0.004 A 
ATOM     13  C10 UNK A          39.604  13.584  -0.457  0.00  0.00     0.053 A 
ATOM     14  C13 UNK A          39.896  12.226  -0.339  0.00  0.00     0.099 A 
ATOM     15  C15 UNK A          41.070  11.714  -0.894  0.00  0.00     0.098 A 
ATOM     16  C14 UNK A          41.950  12.560  -1.568  0.00  0.00     0.040 A 
ATOM     17  C12 UNK A          41.657  13.919  -1.687  0.00  0.00     0.017 A 
BRANCH  14  18
ATOM     18  O6  UNK A          39.031  11.408   0.322  0.00  0.00    -0.358 OA
ATOM     19  H9  UNK A          38.457  11.937   0.900  0.00  0.00     0.217 HD
ENDBRANCH  14  18
BRANCH  15  20
ATOM     20  O7  UNK A          41.365  10.388  -0.786  0.00  0.00    -0.358 OA
ATOM     21  H10 UNK A          41.912  10.237   0.002  0.00  0.00     0.217 HD
ENDBRANCH  15  20
ENDBRANCH   5  12
BRANCH   6  22
ATOM     22  O2  UNK A          41.345  16.092  -3.336  0.00  0.00    -0.355 OA
ATOM     23  H6  UNK A          41.928  16.780  -3.697  0.00  0.00     0.218 HD
ENDBRANCH   6  22
BRANCH   8  24
ATOM     24  O3  UNK A          39.371  20.791  -2.148  0.00  0.00    -0.360 OA
ATOM     25  H7  UNK A          38.906  20.597  -2.976  0.00  0.00     0.217 HD
ENDBRANCH   8  24
BRANCH  10  26
ATOM     26  O5  UNK A          37.118  19.909   1.938  0.00  0.00    -0.361 OA
ATOM     27  H8  UNK A          36.613  20.689   1.650  0.00  0.00     0.217 HD
ENDBRANCH  10  26
TORSDOF 6
ENDMDL
MODEL 6
REMARK VINA RESULT:      -6.6     14.832     15.580
REMARK  6 active torsions:
REMARK  status: ('A' for Active; 'I' for Inactive)
REMARK    1  A    between atoms: O2_2  and  C5_12 
REMARK    2  A    between atoms: O3_3  and  C7_14 
REMARK    3  A    between atoms: O5_5  and  C9_16 
REMARK    4  A    between atoms: O6_6  and  C13_20 
REMARK    5  A    between atoms: O7_7  and  C15_22 
REMARK    6  A    between atoms: C3_10  and  C4_11 
ROOT
ATOM      1  O1  UNK A          42.424   3.345   9.033  0.00  0.00    -0.306 OA
ATOM      2  O4  UNK A          46.042   2.337   7.451  0.00  0.00    -0.284 OA
ATOM      3  C1  UNK A          44.796   3.807   8.811  0.00  0.00     0.084 A 
ATOM      4  C2  UNK A          43.532   4.099   9.319  0.00  0.00     0.096 A 
ATOM      5  C3  UNK A          42.571   2.237   8.213  0.00  0.00     0.123 A 
ATOM      6  C5  UNK A          43.733   1.851   7.653  0.00  0.00     0.152 A 
ATOM      7  C6  UNK A          44.957   2.640   7.931  0.00  0.00     0.223 A 
ATOM      8  C7  UNK A          45.890   4.613   9.137  0.00  0.00     0.085 A 
ATOM      9  C8  UNK A          43.353   5.203  10.154  0.00  0.00     0.075 A 
ATOM     10  C9  UNK A          44.443   6.009  10.482  0.00  0.00     0.071 A 
ATOM     11  C11 UNK A          45.709   5.714   9.973  0.00  0.00     0.074 A 
ENDROOT
BRANCH   5  12
ATOM     12  C4  UNK A          41.306   1.516   7.987  0.00  0.00     0.004 A 
ATOM     13  C10 UNK A          40.353   2.036   7.110  0.00  0.00     0.053 A 
ATOM     14  C13 UNK A          39.157   1.353   6.896  0.00  0.00     0.099 A 
ATOM     15  C15 UNK A          38.911   0.150   7.560  0.00  0.00     0.098 A 
ATOM     16  C14 UNK A          39.863  -0.369   8.436  0.00  0.00     0.040 A 
ATOM     17  C12 UNK A          41.061   0.313   8.651  0.00  0.00     0.017 A 
BRANCH  14  18
ATOM     18  O6  UNK A          38.234   1.870   6.038  0.00  0.00    -0.358 OA
ATOM     19  H9  UNK A          37.472   1.271   5.975  0.00  0.00     0.217 HD
ENDBRANCH  14  18
BRANCH  15  20
ATOM     20  O7  UNK A          37.746  -0.527   7.357  0.00  0.00    -0.358 OA
ATOM     21  H10 UNK A          37.042  -0.136   7.898  0.00  0.00     0.217 HD
ENDBRANCH  15  20
ENDBRANCH   5  12
BRANCH   6  22
ATOM     22  O2  UNK A          43.839   0.762   6.816  0.00  0.00    -0.355 OA
ATOM     23  H6  UNK A          43.337   0.015   7.181  0.00  0.00     0.218 HD
ENDBRANCH   6  22
BRANCH   8  24
ATOM     24  O3  UNK A          47.147   4.371   8.668  0.00  0.00    -0.360 OA
ATOM     25  H7  UNK A          47.627   3.781   9.269  0.00  0.00     0.217 HD
ENDBRANCH   8  24
BRANCH  10  26
ATOM     26  O5  UNK A          44.272   7.085  11.296  0.00  0.00    -0.361 OA
ATOM     27  H8  UNK A          45.058   7.655  11.237  0.00  0.00     0.217 HD
ENDBRANCH  10  26
TORSDOF 6
ENDMDL
MODEL 7
REMARK VINA RESULT:      -6.5     15.106     18.060
REMARK  6 active torsions:
REMARK  status: ('A' for Active; 'I' for Inactive)
REMARK    1  A    between atoms: O2_2  and  C5_12 
REMARK    2  A    between atoms: O3_3  and  C7_14 
REMARK    3  A    between atoms: O5_5  and  C9_16 
REMARK    4  A    between atoms: O6_6  and  C13_20 
REMARK    5  A    between atoms: O7_7  and  C15_22 
REMARK    6  A    between atoms: C3_10  and  C4_11 
ROOT
ATOM      1  O1  UNK A          39.709   0.367   8.618  0.00  0.00    -0.306 OA
ATOM      2  O4  UNK A          43.446  -0.768   9.781  0.00  0.00    -0.284 OA
ATOM      3  C1  UNK A          41.879   0.975   9.519  0.00  0.00     0.084 A 
ATOM      4  C2  UNK A          40.589   1.299   9.104  0.00  0.00     0.096 A 
ATOM      5  C3  UNK A          40.117  -0.956   8.550  0.00  0.00     0.123 A 
ATOM      6  C5  UNK A          41.336  -1.398   8.910  0.00  0.00     0.152 A 
ATOM      7  C6  UNK A          42.323  -0.425   9.436  0.00  0.00     0.223 A 
ATOM      8  C7  UNK A          42.734   1.968  10.004  0.00  0.00     0.085 A 
ATOM      9  C8  UNK A          40.146   2.620   9.170  0.00  0.00     0.075 A 
ATOM     10  C9  UNK A          40.996   3.615   9.654  0.00  0.00     0.071 A 
ATOM     11  C11 UNK A          42.288   3.288  10.070  0.00  0.00     0.074 A 
ENDROOT
BRANCH   5  12
ATOM     12  C4  UNK A          39.077  -1.851   8.012  0.00  0.00     0.004 A 
ATOM     13  C10 UNK A          39.362  -2.680   6.926  0.00  0.00     0.053 A 
ATOM     14  C13 UNK A          38.379  -3.527   6.418  0.00  0.00     0.099 A 
ATOM     15  C15 UNK A          37.108  -3.546   6.994  0.00  0.00     0.098 A 
ATOM     16  C14 UNK A          36.823  -2.718   8.079  0.00  0.00     0.040 A 
ATOM     17  C12 UNK A          37.807  -1.870   8.588  0.00  0.00     0.017 A 
BRANCH  14  18
ATOM     18  O6  UNK A          38.669  -4.331   5.357  0.00  0.00    -0.358 OA
ATOM     19  H9  UNK A          37.940  -4.956   5.210  0.00  0.00     0.217 HD
ENDBRANCH  14  18
BRANCH  15  20
ATOM     20  O7  UNK A          36.140  -4.371   6.507  0.00  0.00    -0.358 OA
ATOM     21  H10 UNK A          35.332  -4.275   7.035  0.00  0.00     0.217 HD
ENDBRANCH  15  20
ENDBRANCH   5  12
BRANCH   6  22
ATOM     22  O2  UNK A          41.721  -2.716   8.799  0.00  0.00    -0.355 OA
ATOM     23  H6  UNK A          41.080  -3.203   8.256  0.00  0.00     0.218 HD
ENDBRANCH   6  22
BRANCH   8  24
ATOM     24  O3  UNK A          44.004   1.704  10.422  0.00  0.00    -0.360 OA
ATOM     25  H7  UNK A          44.133   2.012  11.332  0.00  0.00     0.217 HD
ENDBRANCH   8  24
BRANCH  10  26
ATOM     26  O5  UNK A          40.566   4.903   9.720  0.00  0.00    -0.361 OA
ATOM     27  H8  UNK A          40.797   5.270  10.591  0.00  0.00     0.217 HD
ENDBRANCH  10  26
TORSDOF 6
ENDMDL
MODEL 8
REMARK VINA RESULT:      -6.5     13.385     15.519
REMARK  6 active torsions:
REMARK  status: ('A' for Active; 'I' for Inactive)
REMARK    1  A    between atoms: O2_2  and  C5_12 
REMARK    2  A    between atoms: O3_3  and  C7_14 
REMARK    3  A    between atoms: O5_5  and  C9_16 
REMARK    4  A    between atoms: O6_6  and  C13_20 
REMARK    5  A    between atoms: O7_7  and  C15_22 
REMARK    6  A    between atoms: C3_10  and  C4_11 
ROOT
ATOM      1  O1  UNK A          42.370  21.260  12.002  0.00  0.00    -0.306 OA
ATOM      2  O4  UNK A          45.615  18.967  11.093  0.00  0.00    -0.284 OA
ATOM      3  C1  UNK A          43.387  19.061  11.863  0.00  0.00     0.084 A 
ATOM      4  C2  UNK A          42.314  19.899  12.157  0.00  0.00     0.096 A 
ATOM      5  C3  UNK A          43.541  21.823  11.520  0.00  0.00     0.123 A 
ATOM      6  C5  UNK A          44.650  21.128  11.207  0.00  0.00     0.152 A 
ATOM      7  C6  UNK A          44.637  19.653  11.363  0.00  0.00     0.223 A 
ATOM      8  C7  UNK A          43.273  17.680  12.042  0.00  0.00     0.085 A 
ATOM      9  C8  UNK A          41.119  19.361  12.635  0.00  0.00     0.075 A 
ATOM     10  C9  UNK A          41.000  17.983  12.815  0.00  0.00     0.071 A 
ATOM     11  C11 UNK A          42.076  17.144  12.519  0.00  0.00     0.074 A 
ENDROOT
BRANCH   5  12
ATOM     12  C4  UNK A          43.468  23.290  11.401  0.00  0.00     0.004 A 
ATOM     13  C10 UNK A          43.677  23.902  10.165  0.00  0.00     0.053 A 
ATOM     14  C13 UNK A          43.606  25.290  10.053  0.00  0.00     0.099 A 
ATOM     15  C15 UNK A          43.327  26.067  11.177  0.00  0.00     0.098 A 
ATOM     16  C14 UNK A          43.117  25.456  12.413  0.00  0.00     0.040 A 
ATOM     17  C12 UNK A          43.187  24.067  12.525  0.00  0.00     0.017 A 
BRANCH  14  18
ATOM     18  O6  UNK A          43.814  25.877   8.841  0.00  0.00    -0.358 OA
ATOM     19  H9  UNK A          44.586  25.475   8.410  0.00  0.00     0.217 HD
ENDBRANCH  14  18
BRANCH  15  20
ATOM     20  O7  UNK A          43.253  27.424  11.080  0.00  0.00    -0.358 OA
ATOM     21  H10 UNK A          42.579  27.761  11.691  0.00  0.00     0.217 HD
ENDBRANCH  15  20
ENDBRANCH   5  12
BRANCH   6  22
ATOM     22  O2  UNK A          45.810  21.722  10.760  0.00  0.00    -0.355 OA
ATOM     23  H6  UNK A          46.275  22.140  11.504  0.00  0.00     0.218 HD
ENDBRANCH   6  22
BRANCH   8  24
ATOM     24  O3  UNK A          44.291  16.816  11.770  0.00  0.00    -0.360 OA
ATOM     25  H7  UNK A          44.354  16.654  10.816  0.00  0.00     0.217 HD
ENDBRANCH   8  24
BRANCH  10  26
ATOM     26  O5  UNK A          39.836  17.456  13.280  0.00  0.00    -0.361 OA
ATOM     27  H8  UNK A          39.575  17.930  14.088  0.00  0.00     0.217 HD
ENDBRANCH  10  26
TORSDOF 6
ENDMDL
MODEL 9
REMARK VINA RESULT:      -6.4     24.948     28.213
REMARK  6 active torsions:
REMARK  status: ('A' for Active; 'I' for Inactive)
REMARK    1  A    between atoms: O2_2  and  C5_12 
REMARK    2  A    between atoms: O3_3  and  C7_14 
REMARK    3  A    between atoms: O5_5  and  C9_16 
REMARK    4  A    between atoms: O6_6  and  C13_20 
REMARK    5  A    between atoms: O7_7  and  C15_22 
REMARK    6  A    between atoms: C3_10  and  C4_11 
ROOT
ATOM      1  O1  UNK A          47.999 -11.179  -3.986  0.00  0.00    -0.306 OA
ATOM      2  O4  UNK A          50.542 -12.338  -6.952  0.00  0.00    -0.284 OA
ATOM      3  C1  UNK A          49.839 -10.640  -5.474  0.00  0.00     0.084 A 
ATOM      4  C2  UNK A          48.940 -10.305  -4.463  0.00  0.00     0.096 A 
ATOM      5  C3  UNK A          47.948 -12.455  -4.523  0.00  0.00     0.123 A 
ATOM      6  C5  UNK A          48.751 -12.901  -5.507  0.00  0.00     0.152 A 
ATOM      7  C6  UNK A          49.782 -11.989  -6.058  0.00  0.00     0.223 A 
ATOM      8  C7  UNK A          50.777  -9.706  -5.922  0.00  0.00     0.085 A 
ATOM      9  C8  UNK A          48.973  -9.030  -3.895  0.00  0.00     0.075 A 
ATOM     10  C9  UNK A          49.908  -8.096  -4.339  0.00  0.00     0.071 A 
ATOM     11  C11 UNK A          50.808  -8.434  -5.351  0.00  0.00     0.074 A 
ENDROOT
BRANCH   5  12
ATOM     12  C4  UNK A          46.894 -13.291  -3.922  0.00  0.00     0.004 A 
ATOM     13  C10 UNK A          45.613 -13.304  -4.474  0.00  0.00     0.053 A 
ATOM     14  C13 UNK A          44.616 -14.097  -3.906  0.00  0.00     0.099 A 
ATOM     15  C15 UNK A          44.900 -14.875  -2.783  0.00  0.00     0.098 A 
ATOM     16  C14 UNK A          46.180 -14.862  -2.231  0.00  0.00     0.040 A 
ATOM     17  C12 UNK A          47.178 -14.071  -2.800  0.00  0.00     0.017 A 
BRANCH  14  18
ATOM     18  O6  UNK A          43.369 -14.100  -4.453  0.00  0.00    -0.358 OA
ATOM     19  H9  UNK A          43.432 -14.216  -5.415  0.00  0.00     0.217 HD
ENDBRANCH  14  18
BRANCH  15  20
ATOM     20  O7  UNK A          43.934 -15.654  -2.220  0.00  0.00    -0.358 OA
ATOM     21  H10 UNK A          43.136 -15.637  -2.771  0.00  0.00     0.217 HD
ENDBRANCH  15  20
ENDBRANCH   5  12
BRANCH   6  22
ATOM     22  O2  UNK A          48.654 -14.167  -6.043  0.00  0.00    -0.355 OA
ATOM     23  H6  UNK A          48.869 -14.830  -5.366  0.00  0.00     0.218 HD
ENDBRANCH   6  22
BRANCH   8  24
ATOM     24  O3  UNK A          51.677  -9.984  -6.906  0.00  0.00    -0.360 OA
ATOM     25  H7  UNK A          52.038  -9.164  -7.278  0.00  0.00     0.217 HD
ENDBRANCH   8  24
BRANCH  10  26
ATOM     26  O5  UNK A          49.942  -6.853  -3.786  0.00  0.00    -0.361 OA
ATOM     27  H8  UNK A          49.255  -6.793  -3.101  0.00  0.00     0.217 HD
ENDBRANCH  10  26
TORSDOF 6
ENDMDL
MODEL 10
REMARK VINA RESULT:      -6.4     13.148     15.699
REMARK  6 active torsions:
REMARK  status: ('A' for Active; 'I' for Inactive)
REMARK    1  A    between atoms: O2_2  and  C5_12 
REMARK    2  A    between atoms: O3_3  and  C7_14 
REMARK    3  A    between atoms: O5_5  and  C9_16 
REMARK    4  A    between atoms: O6_6  and  C13_20 
REMARK    5  A    between atoms: O7_7  and  C15_22 
REMARK    6  A    between atoms: C3_10  and  C4_11 
ROOT
ATOM      1  O1  UNK A          44.488  21.306  11.721  0.00  0.00    -0.306 OA
ATOM      2  O4  UNK A          41.211  18.908  11.370  0.00  0.00    -0.284 OA
ATOM      3  C1  UNK A          43.534  19.074  11.741  0.00  0.00     0.084 A 
ATOM      4  C2  UNK A          44.615  19.947  11.849  0.00  0.00     0.096 A 
ATOM      5  C3  UNK A          43.228  21.834  11.488  0.00  0.00     0.123 A 
ATOM      6  C5  UNK A          42.107  21.101  11.356  0.00  0.00     0.152 A 
ATOM      7  C6  UNK A          42.196  19.627  11.480  0.00  0.00     0.223 A 
ATOM      8  C7  UNK A          43.724  17.697  11.878  0.00  0.00     0.085 A 
ATOM      9  C8  UNK A          45.895  19.447  12.093  0.00  0.00     0.075 A 
ATOM     10  C9  UNK A          46.088  18.072  12.231  0.00  0.00     0.071 A 
ATOM     11  C11 UNK A          45.004  17.199  12.123  0.00  0.00     0.074 A 
ENDROOT
BRANCH   5  12
ATOM     12  C4  UNK A          43.232  23.303  11.373  0.00  0.00     0.004 A 
ATOM     13  C10 UNK A          43.532  23.907  10.152  0.00  0.00     0.053 A 
ATOM     14  C13 UNK A          43.534  25.297  10.043  0.00  0.00     0.099 A 
ATOM     15  C15 UNK A          43.239  26.084  11.157  0.00  0.00     0.098 A 
ATOM     16  C14 UNK A          42.939  25.481  12.378  0.00  0.00     0.040 A 
ATOM     17  C12 UNK A          42.935  24.090  12.487  0.00  0.00     0.017 A 
BRANCH  14  18
ATOM     18  O6  UNK A          43.830  25.876   8.847  0.00  0.00    -0.358 OA
ATOM     19  H9  UNK A          44.673  25.528   8.513  0.00  0.00     0.217 HD
ENDBRANCH  14  18
BRANCH  15  20
ATOM     20  O7  UNK A          43.236  27.444  11.062  0.00  0.00    -0.358 OA
ATOM     21  H10 UNK A          43.727  27.824  11.808  0.00  0.00     0.217 HD
ENDBRANCH  15  20
ENDBRANCH   5  12
BRANCH   6  22
ATOM     22  O2  UNK A          40.873  21.656  11.091  0.00  0.00    -0.355 OA
ATOM     23  H6  UNK A          40.178  21.141  11.533  0.00  0.00     0.218 HD
ENDBRANCH   6  22
BRANCH   8  24
ATOM     24  O3  UNK A          42.702  16.801  11.781  0.00  0.00    -0.360 OA
ATOM     25  H7  UNK A          42.439  16.683  10.856  0.00  0.00     0.217 HD
ENDBRANCH   8  24
BRANCH  10  26
ATOM     26  O5  UNK A          47.334  17.582  12.469  0.00  0.00    -0.361 OA
ATOM     27  H8  UNK A          47.753  18.111  13.171  0.00  0.00     0.217 HD
ENDBRANCH  10  26
TORSDOF 6
ENDMDL
MODEL 11
REMARK VINA RESULT:      -6.3     15.359     17.317
REMARK  6 active torsions:
REMARK  status: ('A' for Active; 'I' for Inactive)
REMARK    1  A    between atoms: O2_2  and  C5_12 
REMARK    2  A    between atoms: O3_3  and  C7_14 
REMARK    3  A    between atoms: O5_5  and  C9_16 
REMARK    4  A    between atoms: O6_6  and  C13_20 
REMARK    5  A    between atoms: O7_7  and  C15_22 
REMARK    6  A    between atoms: C3_10  and  C4_11 
ROOT
ATOM      1  O1  UNK A          44.215   1.639   7.541  0.00  0.00    -0.306 OA
ATOM      2  O4  UNK A          45.743   0.789  11.222  0.00  0.00    -0.284 OA
ATOM      3  C1  UNK A          46.141   1.510   9.012  0.00  0.00     0.084 A 
ATOM      4  C2  UNK A          45.558   1.783   7.777  0.00  0.00     0.096 A 
ATOM      5  C3  UNK A          43.402   1.216   8.581  0.00  0.00     0.123 A 
ATOM      6  C5  UNK A          43.840   0.913   9.817  0.00  0.00     0.152 A 
ATOM      7  C6  UNK A          45.286   1.048  10.117  0.00  0.00     0.223 A 
ATOM      8  C7  UNK A          47.517   1.673   9.194  0.00  0.00     0.085 A 
ATOM      9  C8  UNK A          46.348   2.219   6.713  0.00  0.00     0.075 A 
ATOM     10  C9  UNK A          47.722   2.384   6.890  0.00  0.00     0.071 A 
ATOM     11  C11 UNK A          48.304   2.111   8.129  0.00  0.00     0.074 A 
ENDROOT
BRANCH   5  12
ATOM     12  C4  UNK A          41.985   1.104   8.194  0.00  0.00     0.004 A 
ATOM     13  C10 UNK A          41.327  -0.122   8.295  0.00  0.00     0.053 A 
ATOM     14  C13 UNK A          39.986  -0.227   7.930  0.00  0.00     0.099 A 
ATOM     15  C15 UNK A          39.301   0.895   7.462  0.00  0.00     0.098 A 
ATOM     16  C14 UNK A          39.957   2.121   7.360  0.00  0.00     0.040 A 
ATOM     17  C12 UNK A          41.299   2.226   7.726  0.00  0.00     0.017 A 
BRANCH  14  18
ATOM     18  O6  UNK A          39.355  -1.430   8.032  0.00  0.00    -0.358 OA
ATOM     19  H9  UNK A          38.526  -1.325   8.525  0.00  0.00     0.217 HD
ENDBRANCH  14  18
BRANCH  15  20
ATOM     20  O7  UNK A          37.989   0.805   7.103  0.00  0.00    -0.358 OA
ATOM     21  H10 UNK A          37.763   1.534   6.505  0.00  0.00     0.217 HD
ENDBRANCH  15  20
ENDBRANCH   5  12
BRANCH   6  22
ATOM     22  O2  UNK A          43.010   0.464  10.820  0.00  0.00    -0.355 OA
ATOM     23  H6  UNK A          43.286   0.841  11.671  0.00  0.00     0.218 HD
ENDBRANCH   6  22
BRANCH   8  24
ATOM     24  O3  UNK A          48.136   1.421  10.381  0.00  0.00    -0.360 OA
ATOM     25  H7  UNK A          48.071   0.480  10.605  0.00  0.00     0.217 HD
ENDBRANCH   8  24
BRANCH  10  26
ATOM     26  O5  UNK A          48.495   2.810   5.855  0.00  0.00    -0.361 OA
ATOM     27  H8  UNK A          47.991   3.455   5.329  0.00  0.00     0.217 HD
ENDBRANCH  10  26
TORSDOF 6
ENDMDL
MODEL 12
REMARK VINA RESULT:      -6.3     12.819     15.891
REMARK  6 active torsions:
REMARK  status: ('A' for Active; 'I' for Inactive)
REMARK    1  A    between atoms: O2_2  and  C5_12 
REMARK    2  A    between atoms: O3_3  and  C7_14 
REMARK    3  A    between atoms: O5_5  and  C9_16 
REMARK    4  A    between atoms: O6_6  and  C13_20 
REMARK    5  A    between atoms: O7_7  and  C15_22 
REMARK    6  A    between atoms: C3_10  and  C4_11 
ROOT
ATOM      1  O1  UNK A          38.861  22.094  11.041  0.00  0.00    -0.306 OA
ATOM      2  O4  UNK A          37.711  19.644  14.088  0.00  0.00    -0.284 OA
ATOM      3  C1  UNK A          39.289  20.133  12.405  0.00  0.00     0.084 A 
ATOM      4  C2  UNK A          39.627  21.007  11.374  0.00  0.00     0.096 A 
ATOM      5  C3  UNK A          37.709  22.340  11.771  0.00  0.00     0.123 A 
ATOM      6  C5  UNK A          37.268  21.570  12.783  0.00  0.00     0.152 A 
ATOM      7  C6  UNK A          38.061  20.381  13.175  0.00  0.00     0.223 A 
ATOM      8  C7  UNK A          40.108  19.039  12.698  0.00  0.00     0.085 A 
ATOM      9  C8  UNK A          40.786  20.791  10.627  0.00  0.00     0.075 A 
ATOM     10  C9  UNK A          41.606  19.701  10.917  0.00  0.00     0.071 A 
ATOM     11  C11 UNK A          41.267  18.827  11.951  0.00  0.00     0.074 A 
ENDROOT
BRANCH   5  12
ATOM     12  C4  UNK A          36.981  23.536  11.311  0.00  0.00     0.004 A 
ATOM     13  C10 UNK A          37.289  24.789  11.842  0.00  0.00     0.053 A 
ATOM     14  C13 UNK A          36.602  25.921  11.406  0.00  0.00     0.099 A 
ATOM     15  C15 UNK A          35.603  25.800  10.439  0.00  0.00     0.098 A 
ATOM     16  C14 UNK A          35.294  24.548   9.908  0.00  0.00     0.040 A 
ATOM     17  C12 UNK A          35.983  23.416  10.344  0.00  0.00     0.017 A 
BRANCH  14  18
ATOM     18  O6  UNK A          36.911  27.138  11.933  0.00  0.00    -0.358 OA
ATOM     19  H9  UNK A          37.111  27.764  11.218  0.00  0.00     0.217 HD
ENDBRANCH  14  18
BRANCH  15  20
ATOM     20  O7  UNK A          34.925  26.899  10.004  0.00  0.00    -0.358 OA
ATOM     21  H10 UNK A          35.110  27.651  10.589  0.00  0.00     0.217 HD
ENDBRANCH  15  20
ENDBRANCH   5  12
BRANCH   6  22
ATOM     22  O2  UNK A          36.099  21.825  13.468  0.00  0.00    -0.355 OA
ATOM     23  H6  UNK A          36.061  22.762  13.719  0.00  0.00     0.218 HD
ENDBRANCH   6  22
BRANCH   8  24
ATOM     24  O3  UNK A          39.824  18.155  13.695  0.00  0.00    -0.360 OA
ATOM     25  H7  UNK A          39.435  18.613  14.456  0.00  0.00     0.217 HD
ENDBRANCH   8  24
BRANCH  10  26
ATOM     26  O5  UNK A          42.737  19.489  10.191  0.00  0.00    -0.361 OA
ATOM     27  H8  UNK A          42.522  18.925   9.429  0.00  0.00     0.217 HD
ENDBRANCH  10  26
TORSDOF 6
ENDMDL
MODEL 13
REMARK VINA RESULT:      -6.3     10.366     11.988
REMARK  6 active torsions:
REMARK  status: ('A' for Active; 'I' for Inactive)
REMARK    1  A    between atoms: O2_2  and  C5_12 
REMARK    2  A    between atoms: O3_3  and  C7_14 
REMARK    3  A    between atoms: O5_5  and  C9_16 
REMARK    4  A    between atoms: O6_6  and  C13_20 
REMARK    5  A    between atoms: O7_7  and  C15_22 
REMARK    6  A    between atoms: C3_10  and  C4_11 
ROOT
ATOM      1  O1  UNK A          46.367  11.222  -7.899  0.00  0.00    -0.306 OA
ATOM      2  O4  UNK A          47.940   7.639  -9.037  0.00  0.00    -0.284 OA
ATOM      3  C1  UNK A          46.072   9.079  -8.998  0.00  0.00     0.084 A 
ATOM      4  C2  UNK A          45.594  10.319  -8.581  0.00  0.00     0.096 A 
ATOM      5  C3  UNK A          47.685  10.892  -7.625  0.00  0.00     0.123 A 
ATOM      6  C5  UNK A          48.266   9.726  -7.965  0.00  0.00     0.152 A 
ATOM      7  C6  UNK A          47.466   8.716  -8.700  0.00  0.00     0.223 A 
ATOM      8  C7  UNK A          45.237   8.197  -9.689  0.00  0.00     0.085 A 
ATOM      9  C8  UNK A          44.275  10.685  -8.850  0.00  0.00     0.075 A 
ATOM     10  C9  UNK A          43.438   9.807  -9.540  0.00  0.00     0.071 A 
ATOM     11  C11 UNK A          43.919   8.566  -9.958  0.00  0.00     0.074 A 
ENDROOT
BRANCH   5  12
ATOM     12  C4  UNK A          48.403  11.948  -6.890  0.00  0.00     0.004 A 
ATOM     13  C10 UNK A          48.314  12.016  -5.500  0.00  0.00     0.053 A 
ATOM     14  C13 UNK A          48.994  13.014  -4.804  0.00  0.00     0.099 A 
ATOM     15  C15 UNK A          49.762  13.949  -5.500  0.00  0.00     0.098 A 
ATOM     16  C14 UNK A          49.851  13.883  -6.890  0.00  0.00     0.040 A 
ATOM     17  C12 UNK A          49.171  12.882  -7.586  0.00  0.00     0.017 A 
BRANCH  14  18
ATOM     18  O6  UNK A          48.899  13.071  -3.447  0.00  0.00    -0.358 OA
ATOM     19  H9  UNK A          48.180  13.672  -3.193  0.00  0.00     0.217 HD
ENDBRANCH  14  18
BRANCH  15  20
ATOM     20  O7  UNK A          50.432  14.929  -4.831  0.00  0.00    -0.358 OA
ATOM     21  H10 UNK A          49.803  15.589  -4.500  0.00  0.00     0.217 HD
ENDBRANCH  15  20
ENDBRANCH   5  12
BRANCH   6  22
ATOM     22  O2  UNK A          49.570   9.415  -7.649  0.00  0.00    -0.355 OA
ATOM     23  H6  UNK A          50.094   9.323  -8.462  0.00  0.00     0.218 HD
ENDBRANCH   6  22
BRANCH   8  24
ATOM     24  O3  UNK A          45.655   6.973 -10.119  0.00  0.00    -0.360 OA
ATOM     25  H7  UNK A          46.580   6.824  -9.872  0.00  0.00     0.217 HD
ENDBRANCH   8  24
BRANCH  10  26
ATOM     26  O5  UNK A          42.151  10.162  -9.804  0.00  0.00    -0.361 OA
ATOM     27  H8  UNK A          42.062  11.126  -9.703  0.00  0.00     0.217 HD
ENDBRANCH  10  26
TORSDOF 6
ENDMDL
MODEL 14
REMARK VINA RESULT:      -6.3     21.776     25.925
REMARK  6 active torsions:
REMARK  status: ('A' for Active; 'I' for Inactive)
REMARK    1  A    between atoms: O2_2  and  C5_12 
REMARK    2  A    between atoms: O3_3  and  C7_14 
REMARK    3  A    between atoms: O5_5  and  C9_16 
REMARK    4  A    between atoms: O6_6  and  C13_20 
REMARK    5  A    between atoms: O7_7  and  C15_22 
REMARK    6  A    between atoms: C3_10  and  C4_11 
ROOT
ATOM      1  O1  UNK A          38.826  -9.946   4.856  0.00  0.00    -0.306 OA
ATOM      2  O4  UNK A          36.287 -10.704   1.760  0.00  0.00    -0.284 OA
ATOM      3  C1  UNK A          37.283  -9.107   3.181  0.00  0.00     0.084 A 
ATOM      4  C2  UNK A          38.163  -8.914   4.244  0.00  0.00     0.096 A 
ATOM      5  C3  UNK A          38.622 -11.234   4.388  0.00  0.00     0.123 A 
ATOM      6  C5  UNK A          37.795 -11.556   3.376  0.00  0.00     0.152 A 
ATOM      7  C6  UNK A          37.052 -10.473   2.688  0.00  0.00     0.223 A 
ATOM      8  C7  UNK A          36.634  -8.017   2.597  0.00  0.00     0.085 A 
ATOM      9  C8  UNK A          38.397  -7.628   4.732  0.00  0.00     0.075 A 
ATOM     10  C9  UNK A          37.751  -6.537   4.151  0.00  0.00     0.071 A 
ATOM     11  C11 UNK A          36.870  -6.732   3.086  0.00  0.00     0.074 A 
ENDROOT
BRANCH   5  12
ATOM     12  C4  UNK A          39.394 -12.246   5.131  0.00  0.00     0.004 A 
ATOM     13  C10 UNK A          39.466 -12.186   6.523  0.00  0.00     0.053 A 
ATOM     14  C13 UNK A          40.195 -13.144   7.226  0.00  0.00     0.099 A 
ATOM     15  C15 UNK A          40.854 -14.162   6.537  0.00  0.00     0.098 A 
ATOM     16  C14 UNK A          40.782 -14.223   5.146  0.00  0.00     0.040 A 
ATOM     17  C12 UNK A          40.052 -13.265   4.442  0.00  0.00     0.017 A 
BRANCH  14  18
ATOM     18  O6  UNK A          40.260 -13.074   8.585  0.00  0.00    -0.358 OA
ATOM     19  H9  UNK A          39.674 -12.369   8.906  0.00  0.00     0.217 HD
ENDBRANCH  14  18
BRANCH  15  20
ATOM     20  O7  UNK A          41.569 -15.105   7.214  0.00  0.00    -0.358 OA
ATOM     21  H10 UNK A          42.411 -14.727   7.511  0.00  0.00     0.217 HD
ENDBRANCH  15  20
ENDBRANCH   5  12
BRANCH   6  22
ATOM     22  O2  UNK A          37.589 -12.852   2.955  0.00  0.00    -0.355 OA
ATOM     23  H6  UNK A          37.079 -12.854   2.129  0.00  0.00     0.218 HD
ENDBRANCH   6  22
BRANCH   8  24
ATOM     24  O3  UNK A          35.765  -8.150   1.556  0.00  0.00    -0.360 OA
ATOM     25  H7  UNK A          35.496  -7.281   1.223  0.00  0.00     0.217 HD
ENDBRANCH   8  24
BRANCH  10  26
ATOM     26  O5  UNK A          37.978  -5.282   4.625  0.00  0.00    -0.361 OA
ATOM     27  H8  UNK A          38.921  -5.193   4.845  0.00  0.00     0.217 HD
ENDBRANCH  10  26
TORSDOF 6
ENDMDL
MODEL 15
REMARK VINA RESULT:      -6.3     22.175     23.075
REMARK  6 active torsions:
REMARK  status: ('A' for Active; 'I' for Inactive)
REMARK    1  A    between atoms: O2_2  and  C5_12 
REMARK    2  A    between atoms: O3_3  and  C7_14 
REMARK    3  A    between atoms: O5_5  and  C9_16 
REMARK    4  A    between atoms: O6_6  and  C13_20 
REMARK    5  A    between atoms: O7_7  and  C15_22 
REMARK    6  A    between atoms: C3_10  and  C4_11 
ROOT
ATOM      1  O1  UNK A          38.408  -6.626  -7.119  0.00  0.00    -0.306 OA
ATOM      2  O4  UNK A          36.583  -7.577  -3.601  0.00  0.00    -0.284 OA
ATOM      3  C1  UNK A          36.360  -6.861  -5.837  0.00  0.00     0.084 A 
ATOM      4  C2  UNK A          37.044  -6.549  -7.011  0.00  0.00     0.096 A 
ATOM      5  C3  UNK A          39.136  -7.046  -6.017  0.00  0.00     0.123 A 
ATOM      6  C5  UNK A          38.600  -7.369  -4.826  0.00  0.00     0.152 A 
ATOM      7  C6  UNK A          37.128  -7.295  -4.660  0.00  0.00     0.223 A 
ATOM      8  C7  UNK A          34.968  -6.762  -5.785  0.00  0.00     0.085 A 
ATOM      9  C8  UNK A          36.337  -6.132  -8.140  0.00  0.00     0.075 A 
ATOM     10  C9  UNK A          34.947  -6.032  -8.092  0.00  0.00     0.071 A 
ATOM     11  C11 UNK A          34.264  -6.347  -6.915  0.00  0.00     0.074 A 
ENDROOT
BRANCH   5  12
ATOM     12  C4  UNK A          40.588  -7.085  -6.268  0.00  0.00     0.004 A 
ATOM     13  C10 UNK A          41.093  -7.830  -7.335  0.00  0.00     0.053 A 
ATOM     14  C13 UNK A          42.466  -7.866  -7.573  0.00  0.00     0.099 A 
ATOM     15  C15 UNK A          43.336  -7.158  -6.743  0.00  0.00     0.098 A 
ATOM     16  C14 UNK A          42.832  -6.413  -5.677  0.00  0.00     0.040 A 
ATOM     17  C12 UNK A          41.458  -6.377  -5.439  0.00  0.00     0.017 A 
BRANCH  14  18
ATOM     18  O6  UNK A          42.947  -8.597  -8.616  0.00  0.00    -0.358 OA
ATOM     19  H9  UNK A          43.917  -8.631  -8.573  0.00  0.00     0.217 HD
ENDBRANCH  14  18
BRANCH  15  20
ATOM     20  O7  UNK A          44.680  -7.184  -6.966  0.00  0.00    -0.358 OA
ATOM     21  H10 UNK A          44.875  -6.797  -7.834  0.00  0.00     0.217 HD
ENDBRANCH  15  20
ENDBRANCH   5  12
BRANCH   6  22
ATOM     22  O2  UNK A          39.356  -7.752  -3.739  0.00  0.00    -0.355 OA
ATOM     23  H6  UNK A          39.314  -7.068  -3.051  0.00  0.00     0.218 HD
ENDBRANCH   6  22
BRANCH   8  24
ATOM     24  O3  UNK A          34.252  -7.056  -4.663  0.00  0.00    -0.360 OA
ATOM     25  H7  UNK A          34.480  -6.447  -3.945  0.00  0.00     0.217 HD
ENDBRANCH   8  24
BRANCH  10  26
ATOM     26  O5  UNK A          34.256  -5.627  -9.191  0.00  0.00    -0.361 OA
ATOM     27  H8  UNK A          34.285  -6.333  -9.860  0.00  0.00     0.217 HD
ENDBRANCH  10  26
TORSDOF 6
ENDMDL
MODEL 16
REMARK VINA RESULT:      -6.3     15.936     18.346
REMARK  6 active torsions:
REMARK  status: ('A' for Active; 'I' for Inactive)
REMARK    1  A    between atoms: O2_2  and  C5_12 
REMARK    2  A    between atoms: O3_3  and  C7_14 
REMARK    3  A    between atoms: O5_5  and  C9_16 
REMARK    4  A    between atoms: O6_6  and  C13_20 
REMARK    5  A    between atoms: O7_7  and  C15_22 
REMARK    6  A    between atoms: C3_10  and  C4_11 
ROOT
ATOM      1  O1  UNK A          45.105   0.129   9.888  0.00  0.00    -0.306 OA
ATOM      2  O4  UNK A          44.312   2.250   6.500  0.00  0.00    -0.284 OA
ATOM      3  C1  UNK A          45.917   1.500   8.058  0.00  0.00     0.084 A 
ATOM      4  C2  UNK A          46.122   0.761   9.221  0.00  0.00     0.096 A 
ATOM      5  C3  UNK A          43.820   0.218   9.375  0.00  0.00     0.123 A 
ATOM      6  C5  UNK A          43.488   0.905   8.267  0.00  0.00     0.152 A 
ATOM      7  C6  UNK A          44.554   1.610   7.515  0.00  0.00     0.223 A 
ATOM      8  C7  UNK A          46.992   2.125   7.421  0.00  0.00     0.085 A 
ATOM      9  C8  UNK A          47.405   0.644   9.756  0.00  0.00     0.075 A 
ATOM     10  C9  UNK A          48.481   1.266   9.123  0.00  0.00     0.071 A 
ATOM     11  C11 UNK A          48.274   2.005   7.957  0.00  0.00     0.074 A 
ENDROOT
BRANCH   5  12
ATOM     12  C4  UNK A          42.826  -0.506  10.187  0.00  0.00     0.004 A 
ATOM     13  C10 UNK A          42.446  -1.801   9.835  0.00  0.00     0.053 A 
ATOM     14  C13 UNK A          41.506  -2.486  10.604  0.00  0.00     0.099 A 
ATOM     15  C15 UNK A          40.942  -1.874  11.724  0.00  0.00     0.098 A 
ATOM     16  C14 UNK A          41.321  -0.579  12.076  0.00  0.00     0.040 A 
ATOM     17  C12 UNK A          42.263   0.106  11.307  0.00  0.00     0.017 A 
BRANCH  14  18
ATOM     18  O6  UNK A          41.143  -3.750  10.250  0.00  0.00    -0.358 OA
ATOM     19  H9  UNK A          40.479  -4.087  10.873  0.00  0.00     0.217 HD
ENDBRANCH  14  18
BRANCH  15  20
ATOM     20  O7  UNK A          40.023  -2.534  12.483  0.00  0.00    -0.358 OA
ATOM     21  H10 UNK A          39.955  -2.112  13.354  0.00  0.00     0.217 HD
ENDBRANCH  15  20
ENDBRANCH   5  12
BRANCH   6  22
ATOM     22  O2  UNK A          42.194   1.002   7.802  0.00  0.00    -0.355 OA
ATOM     23  H6  UNK A          42.192   1.385   6.909  0.00  0.00     0.218 HD
ENDBRANCH   6  22
BRANCH   8  24
ATOM     24  O3  UNK A          46.845   2.858   6.282  0.00  0.00    -0.360 OA
ATOM     25  H7  UNK A          47.525   2.619   5.633  0.00  0.00     0.217 HD
ENDBRANCH   8  24
BRANCH  10  26
ATOM     26  O5  UNK A          49.733   1.153   9.643  0.00  0.00    -0.361 OA
ATOM     27  H8  UNK A          50.372   1.077   8.914  0.00  0.00     0.217 HD
ENDBRANCH  10  26
TORSDOF 6
ENDMDL
MODEL 17
REMARK VINA RESULT:      -6.3     15.559     17.915
REMARK  6 active torsions:
REMARK  status: ('A' for Active; 'I' for Inactive)
REMARK    1  A    between atoms: O2_2  and  C5_12 
REMARK    2  A    between atoms: O3_3  and  C7_14 
REMARK    3  A    between atoms: O5_5  and  C9_16 
REMARK    4  A    between atoms: O6_6  and  C13_20 
REMARK    5  A    between atoms: O7_7  and  C15_22 
REMARK    6  A    between atoms: C3_10  and  C4_11 
ROOT
ATOM      1  O1  UNK A          43.940  -0.058   9.159  0.00  0.00    -0.306 OA
ATOM      2  O4  UNK A          40.961   2.076   7.374  0.00  0.00    -0.284 OA
ATOM      3  C1  UNK A          41.581   0.185   8.640  0.00  0.00     0.084 A 
ATOM      4  C2  UNK A          42.644  -0.499   9.227  0.00  0.00     0.096 A 
ATOM      5  C3  UNK A          44.201   1.126   8.487  0.00  0.00     0.123 A 
ATOM      6  C5  UNK A          43.269   1.876   7.871  0.00  0.00     0.152 A 
ATOM      7  C6  UNK A          41.854   1.435   7.914  0.00  0.00     0.223 A 
ATOM      8  C7  UNK A          40.280  -0.314   8.741  0.00  0.00     0.085 A 
ATOM      9  C8  UNK A          42.411  -1.688   9.919  0.00  0.00     0.075 A 
ATOM     10  C9  UNK A          41.114  -2.189  10.022  0.00  0.00     0.071 A 
ATOM     11  C11 UNK A          40.050  -1.502   9.434  0.00  0.00     0.074 A 
ENDROOT
BRANCH   5  12
ATOM     12  C4  UNK A          45.630   1.485   8.489  0.00  0.00     0.004 A 
ATOM     13  C10 UNK A          46.293   1.722   7.285  0.00  0.00     0.053 A 
ATOM     14  C13 UNK A          47.645   2.063   7.287  0.00  0.00     0.099 A 
ATOM     15  C15 UNK A          48.336   2.165   8.495  0.00  0.00     0.098 A 
ATOM     16  C14 UNK A          47.674   1.928   9.699  0.00  0.00     0.040 A 
ATOM     17  C12 UNK A          46.322   1.588   9.697  0.00  0.00     0.017 A 
BRANCH  14  18
ATOM     18  O6  UNK A          48.281   2.291   6.105  0.00  0.00    -0.358 OA
ATOM     19  H9  UNK A          48.033   3.165   5.761  0.00  0.00     0.217 HD
ENDBRANCH  14  18
BRANCH  15  20
ATOM     20  O7  UNK A          49.657   2.499   8.510  0.00  0.00    -0.358 OA
ATOM     21  H10 UNK A          50.136   1.972   7.851  0.00  0.00     0.217 HD
ENDBRANCH  15  20
ENDBRANCH   5  12
BRANCH   6  22
ATOM     22  O2  UNK A          43.566   3.032   7.183  0.00  0.00    -0.355 OA
ATOM     23  H6  UNK A          43.640   3.776   7.804  0.00  0.00     0.218 HD
ENDBRANCH   6  22
BRANCH   8  24
ATOM     24  O3  UNK A          39.207   0.316   8.186  0.00  0.00    -0.360 OA
ATOM     25  H7  UNK A          38.889   1.023   8.767  0.00  0.00     0.217 HD
ENDBRANCH   8  24
BRANCH  10  26
ATOM     26  O5  UNK A          40.884  -3.348  10.697  0.00  0.00    -0.361 OA
ATOM     27  H8  UNK A          39.929  -3.532  10.694  0.00  0.00     0.217 HD
ENDBRANCH  10  26
TORSDOF 6
ENDMDL
MODEL 18
REMARK VINA RESULT:      -6.2     14.975     16.962
REMARK  6 active torsions:
REMARK  status: ('A' for Active; 'I' for Inactive)
REMARK    1  A    between atoms: O2_2  and  C5_12 
REMARK    2  A    between atoms: O3_3  and  C7_14 
REMARK    3  A    between atoms: O5_5  and  C9_16 
REMARK    4  A    between atoms: O6_6  and  C13_20 
REMARK    5  A    between atoms: O7_7  and  C15_22 
REMARK    6  A    between atoms: C3_10  and  C4_11 
ROOT
ATOM      1  O1  UNK A          42.823   2.093   7.737  0.00  0.00    -0.306 OA
ATOM      2  O4  UNK A          42.289  -1.356   9.842  0.00  0.00    -0.284 OA
ATOM      3  C1  UNK A          41.352   0.297   8.445  0.00  0.00     0.084 A 
ATOM      4  C2  UNK A          41.599   1.478   7.747  0.00  0.00     0.096 A 
ATOM      5  C3  UNK A          43.864   1.507   8.442  0.00  0.00     0.123 A 
ATOM      6  C5  UNK A          43.755   0.376   9.161  0.00  0.00     0.152 A 
ATOM      7  C6  UNK A          42.448  -0.322   9.206  0.00  0.00     0.223 A 
ATOM      8  C7  UNK A          40.081  -0.284   8.420  0.00  0.00     0.085 A 
ATOM      9  C8  UNK A          40.574   2.086   7.020  0.00  0.00     0.075 A 
ATOM     10  C9  UNK A          39.305   1.508   6.992  0.00  0.00     0.071 A 
ATOM     11  C11 UNK A          39.060   0.325   7.692  0.00  0.00     0.074 A 
ENDROOT
BRANCH   5  12
ATOM     12  C4  UNK A          45.122   2.268   8.347  0.00  0.00     0.004 A 
ATOM     13  C10 UNK A          45.998   2.041   7.286  0.00  0.00     0.053 A 
ATOM     14  C13 UNK A          47.188   2.762   7.196  0.00  0.00     0.099 A 
ATOM     15  C15 UNK A          47.504   3.710   8.170  0.00  0.00     0.098 A 
ATOM     16  C14 UNK A          46.628   3.938   9.232  0.00  0.00     0.040 A 
ATOM     17  C12 UNK A          45.437   3.217   9.321  0.00  0.00     0.017 A 
BRANCH  14  18
ATOM     18  O6  UNK A          48.036   2.531   6.156  0.00  0.00    -0.358 OA
ATOM     19  H9  UNK A          48.529   3.341   5.948  0.00  0.00     0.217 HD
ENDBRANCH  14  18
BRANCH  15  20
ATOM     20  O7  UNK A          48.663   4.422   8.093  0.00  0.00    -0.358 OA
ATOM     21  H10 UNK A          48.469   5.335   7.828  0.00  0.00     0.217 HD
ENDBRANCH  15  20
ENDBRANCH   5  12
BRANCH   6  22
ATOM     22  O2  UNK A          44.802  -0.163   9.878  0.00  0.00    -0.355 OA
ATOM     23  H6  UNK A          45.328  -0.746   9.307  0.00  0.00     0.218 HD
ENDBRANCH   6  22
BRANCH   8  24
ATOM     24  O3  UNK A          39.788  -1.437   9.085  0.00  0.00    -0.360 OA
ATOM     25  H7  UNK A          40.298  -2.177   8.724  0.00  0.00     0.217 HD
ENDBRANCH   8  24
BRANCH  10  26
ATOM     26  O5  UNK A          38.305   2.099   6.284  0.00  0.00    -0.361 OA
ATOM     27  H8  UNK A          38.656   2.890   5.841  0.00  0.00     0.217 HD
ENDBRANCH  10  26
TORSDOF 6
ENDMDL
MODEL 19
REMARK VINA RESULT:      -6.2     13.732     16.349
REMARK  6 active torsions:
REMARK  status: ('A' for Active; 'I' for Inactive)
REMARK    1  A    between atoms: O2_2  and  C5_12 
REMARK    2  A    between atoms: O3_3  and  C7_14 
REMARK    3  A    between atoms: O5_5  and  C9_16 
REMARK    4  A    between atoms: O6_6  and  C13_20 
REMARK    5  A    between atoms: O7_7  and  C15_22 
REMARK    6  A    between atoms: C3_10  and  C4_11 
ROOT
ATOM      1  O1  UNK A          41.543   3.225   8.747  0.00  0.00    -0.306 OA
ATOM      2  O4  UNK A          43.544  -0.175   9.767  0.00  0.00    -0.284 OA
ATOM      3  C1  UNK A          41.640   0.800   8.776  0.00  0.00     0.084 A 
ATOM      4  C2  UNK A          41.006   1.999   8.455  0.00  0.00     0.096 A 
ATOM      5  C3  UNK A          42.777   3.274   9.377  0.00  0.00     0.123 A 
ATOM      6  C5  UNK A          43.488   2.193   9.747  0.00  0.00     0.152 A 
ATOM      7  C6  UNK A          42.943   0.845   9.456  0.00  0.00     0.223 A 
ATOM      8  C7  UNK A          41.043  -0.421   8.454  0.00  0.00     0.085 A 
ATOM      9  C8  UNK A          39.767   1.983   7.811  0.00  0.00     0.075 A 
ATOM     10  C9  UNK A          39.168   0.765   7.489  0.00  0.00     0.071 A 
ATOM     11  C11 UNK A          39.806  -0.434   7.810  0.00  0.00     0.074 A 
ENDROOT
BRANCH   5  12
ATOM     12  C4  UNK A          43.239   4.650   9.631  0.00  0.00     0.004 A 
ATOM     13  C10 UNK A          42.597   5.437  10.588  0.00  0.00     0.053 A 
ATOM     14  C13 UNK A          43.035   6.738  10.829  0.00  0.00     0.099 A 
ATOM     15  C15 UNK A          44.116   7.254  10.113  0.00  0.00     0.098 A 
ATOM     16  C14 UNK A          44.758   6.468   9.156  0.00  0.00     0.040 A 
ATOM     17  C12 UNK A          44.320   5.166   8.915  0.00  0.00     0.017 A 
BRANCH  14  18
ATOM     18  O6  UNK A          42.400   7.497  11.764  0.00  0.00    -0.358 OA
ATOM     19  H9  UNK A          41.489   7.182  11.880  0.00  0.00     0.217 HD
ENDBRANCH  14  18
BRANCH  15  20
ATOM     20  O7  UNK A          44.554   8.524  10.341  0.00  0.00    -0.358 OA
ATOM     21  H10 UNK A          43.813   9.079  10.630  0.00  0.00     0.217 HD
ENDBRANCH  15  20
ENDBRANCH   5  12
BRANCH   6  22
ATOM     22  O2  UNK A          44.697   2.275  10.402  0.00  0.00    -0.355 OA
ATOM     23  H6  UNK A          44.906   1.423  10.818  0.00  0.00     0.218 HD
ENDBRANCH   6  22
BRANCH   8  24
ATOM     24  O3  UNK A          41.620  -1.621   8.746  0.00  0.00    -0.360 OA
ATOM     25  H7  UNK A          41.183  -2.033   9.506  0.00  0.00     0.217 HD
ENDBRANCH   8  24
BRANCH  10  26
ATOM     26  O5  UNK A          37.962   0.747   6.861  0.00  0.00    -0.361 OA
ATOM     27  H8  UNK A          37.751   1.646   6.554  0.00  0.00     0.217 HD
ENDBRANCH  10  26
TORSDOF 6
ENDMDL
MODEL 20
REMARK VINA RESULT:      -6.2     15.878     18.482
REMARK  6 active torsions:
REMARK  status: ('A' for Active; 'I' for Inactive)
REMARK    1  A    between atoms: O2_2  and  C5_12 
REMARK    2  A    between atoms: O3_3  and  C7_14 
REMARK    3  A    between atoms: O5_5  and  C9_16 
REMARK    4  A    between atoms: O6_6  and  C13_20 
REMARK    5  A    between atoms: O7_7  and  C15_22 
REMARK    6  A    between atoms: C3_10  and  C4_11 
ROOT
ATOM      1  O1  UNK A          40.820  -1.431   8.575  0.00  0.00    -0.306 OA
ATOM      2  O4  UNK A          39.207   2.275   8.049  0.00  0.00    -0.284 OA
ATOM      3  C1  UNK A          41.059   0.980   8.724  0.00  0.00     0.084 A 
ATOM      4  C2  UNK A          41.552  -0.314   8.882  0.00  0.00     0.096 A 
ATOM      5  C3  UNK A          39.539  -1.265   8.073  0.00  0.00     0.123 A 
ATOM      6  C5  UNK A          38.943  -0.074   7.881  0.00  0.00     0.152 A 
ATOM      7  C6  UNK A          39.695   1.163   8.204  0.00  0.00     0.223 A 
ATOM      8  C7  UNK A          41.852   2.082   9.055  0.00  0.00     0.085 A 
ATOM      9  C8  UNK A          42.842  -0.513   9.376  0.00  0.00     0.075 A 
ATOM     10  C9  UNK A          43.637   0.584   9.707  0.00  0.00     0.071 A 
ATOM     11  C11 UNK A          43.141   1.879   9.547  0.00  0.00     0.074 A 
ENDROOT
BRANCH   5  12
ATOM     12  C4  UNK A          38.864  -2.543   7.786  0.00  0.00     0.004 A 
ATOM     13  C10 UNK A          38.913  -3.086   6.501  0.00  0.00     0.053 A 
ATOM     14  C13 UNK A          38.276  -4.295   6.230  0.00  0.00     0.099 A 
ATOM     15  C15 UNK A          37.586  -4.963   7.243  0.00  0.00     0.098 A 
ATOM     16  C14 UNK A          37.535  -4.420   8.527  0.00  0.00     0.040 A 
ATOM     17  C12 UNK A          38.174  -3.211   8.799  0.00  0.00     0.017 A 
BRANCH  14  18
ATOM     18  O6  UNK A          38.330  -4.815   4.972  0.00  0.00    -0.358 OA
ATOM     19  H9  UNK A          38.826  -4.216   4.391  0.00  0.00     0.217 HD
ENDBRANCH  14  18
BRANCH  15  20
ATOM     20  O7  UNK A          36.960  -6.146   6.990  0.00  0.00    -0.358 OA
ATOM     21  H10 UNK A          36.133  -6.194   7.495  0.00  0.00     0.217 HD
ENDBRANCH  15  20
ENDBRANCH   5  12
BRANCH   6  22
ATOM     22  O2  UNK A          37.654   0.056   7.411  0.00  0.00    -0.355 OA
ATOM     23  H6  UNK A          37.025  -0.030   8.145  0.00  0.00     0.218 HD
ENDBRANCH   6  22
BRANCH   8  24
ATOM     24  O3  UNK A          41.418   3.366   8.919  0.00  0.00    -0.360 OA
ATOM     25  H7  UNK A          40.486   3.439   9.174  0.00  0.00     0.217 HD
ENDBRANCH   8  24
BRANCH  10  26
ATOM     26  O5  UNK A          44.895   0.392  10.187  0.00  0.00    -0.361 OA
ATOM     27  H8  UNK A          45.537   0.629   9.496  0.00  0.00     0.217 HD
ENDBRANCH  10  26
TORSDOF 6
ENDMDL
