MODEL 1
REMARK VINA RESULT:      -7.0      0.000      0.000
REMARK  6 active torsions:
REMARK  status: ('A' for Active; 'I' for Inactive)
REMARK    1  A    between atoms: O2_2  and  C5_12 
REMARK    2  A    between atoms: O3_3  and  C7_14 
REMARK    3  A    between atoms: O5_5  and  C9_16 
REMARK    4  A    between atoms: O6_6  and  C13_20 
REMARK    5  A    between atoms: O7_7  and  C15_22 
REMARK    6  A    between atoms: C3_10  and  C4_11 
ROOT
ATOM      1  O1  UNK A          39.534  15.966  -0.013  0.00  0.00    -0.306 OA
ATOM      2  O4  UNK A          40.890  17.628  -3.478  0.00  0.00    -0.284 OA
ATOM      3  C1  UNK A          39.728  17.915  -1.446  0.00  0.00     0.084 A 
ATOM      4  C2  UNK A          39.291  17.288  -0.281  0.00  0.00     0.096 A 
ATOM      5  C3  UNK A          40.257  15.225  -0.936  0.00  0.00     0.123 A 
ATOM      6  C5  UNK A          40.728  15.708  -2.100  0.00  0.00     0.152 A 
ATOM      7  C6  UNK A          40.485  17.132  -2.435  0.00  0.00     0.223 A 
ATOM      8  C7  UNK A          39.449  19.266  -1.666  0.00  0.00     0.085 A 
ATOM      9  C8  UNK A          38.569  18.009   0.671  0.00  0.00     0.075 A 
ATOM     10  C9  UNK A          38.289  19.358   0.455  0.00  0.00     0.071 A 
ATOM     11  C11 UNK A          38.729  19.985  -0.712  0.00  0.00     0.074 A 
ENDROOT
BRANCH   5  12
ATOM     12  C4  UNK A          40.447  13.823  -0.526  0.00  0.00     0.004 A 
ATOM     13  C10 UNK A          41.061  12.919  -1.392  0.00  0.00     0.053 A 
ATOM     14  C13 UNK A          41.242  11.592  -1.004  0.00  0.00     0.099 A 
ATOM     15  C15 UNK A          40.806  11.168   0.252  0.00  0.00     0.098 A 
ATOM     16  C14 UNK A          40.192  12.071   1.119  0.00  0.00     0.040 A 
ATOM     17  C12 UNK A          40.012  13.399   0.730  0.00  0.00     0.017 A 
BRANCH  14  18
ATOM     18  O6  UNK A          41.842  10.718  -1.858  0.00  0.00    -0.358 OA
ATOM     19  H9  UNK A          41.536  10.883  -2.765  0.00  0.00     0.217 HD
ENDBRANCH  14  18
BRANCH  15  20
ATOM     20  O7  UNK A          40.979   9.874   0.644  0.00  0.00    -0.358 OA
ATOM     21  H10 UNK A          41.810   9.530   0.281  0.00  0.00     0.217 HD
ENDBRANCH  15  20
ENDBRANCH   5  12
BRANCH   6  22
ATOM     22  O2  UNK A          41.416  14.937  -3.011  0.00  0.00    -0.355 OA
ATOM     23  H6  UNK A          40.892  14.153  -3.242  0.00  0.00     0.218 HD
ENDBRANCH   6  22
BRANCH   8  24
ATOM     24  O3  UNK A          39.854  19.927  -2.787  0.00  0.00    -0.360 OA
ATOM     25  H7  UNK A          39.182  20.568  -3.066  0.00  0.00     0.217 HD
ENDBRANCH   8  24
BRANCH  10  26
ATOM     26  O5  UNK A          37.586  20.063   1.382  0.00  0.00    -0.361 OA
ATOM     27  H8  UNK A          37.151  19.440   1.989  0.00  0.00     0.217 HD
ENDBRANCH  10  26
TORSDOF 6
ENDMDL
MODEL 2
REMARK VINA RESULT:      -6.9      1.137      6.749
REMARK  6 active torsions:
REMARK  status: ('A' for Active; 'I' for Inactive)
REMARK    1  A    between atoms: O2_2  and  C5_12 
REMARK    2  A    between atoms: O3_3  and  C7_14 
REMARK    3  A    between atoms: O5_5  and  C9_16 
REMARK    4  A    between atoms: O6_6  and  C13_20 
REMARK    5  A    between atoms: O7_7  and  C15_22 
REMARK    6  A    between atoms: C3_10  and  C4_11 
ROOT
ATOM      1  O1  UNK A          39.610  14.653   0.068  0.00  0.00    -0.306 OA
ATOM      2  O4  UNK A          42.274  13.277  -2.693  0.00  0.00    -0.284 OA
ATOM      3  C1  UNK A          40.909  12.809  -0.828  0.00  0.00     0.084 A 
ATOM      4  C2  UNK A          40.003  13.340   0.088  0.00  0.00     0.096 A 
ATOM      5  C3  UNK A          40.126  15.483  -0.915  0.00  0.00     0.123 A 
ATOM      6  C5  UNK A          41.013  15.097  -1.851  0.00  0.00     0.152 A 
ATOM      7  C6  UNK A          41.470  13.687  -1.865  0.00  0.00     0.223 A 
ATOM      8  C7  UNK A          41.274  11.462  -0.758  0.00  0.00     0.085 A 
ATOM      9  C8  UNK A          39.458  12.527   1.083  0.00  0.00     0.075 A 
ATOM     10  C9  UNK A          39.820  11.182   1.156  0.00  0.00     0.071 A 
ATOM     11  C11 UNK A          40.727  10.651   0.237  0.00  0.00     0.074 A 
ENDROOT
BRANCH   5  12
ATOM     12  C4  UNK A          39.623  16.865  -0.824  0.00  0.00     0.004 A 
ATOM     13  C10 UNK A          38.735  17.220   0.193  0.00  0.00     0.053 A 
ATOM     14  C13 UNK A          38.260  18.527   0.280  0.00  0.00     0.099 A 
ATOM     15  C15 UNK A          38.670  19.482  -0.652  0.00  0.00     0.098 A 
ATOM     16  C14 UNK A          39.557  19.128  -1.668  0.00  0.00     0.040 A 
ATOM     17  C12 UNK A          40.034  17.820  -1.755  0.00  0.00     0.017 A 
BRANCH  14  18
ATOM     18  O6  UNK A          37.393  18.862   1.275  0.00  0.00    -0.358 OA
ATOM     19  H9  UNK A          37.718  19.647   1.744  0.00  0.00     0.217 HD
ENDBRANCH  14  18
BRANCH  15  20
ATOM     20  O7  UNK A          38.214  20.763  -0.577  0.00  0.00    -0.358 OA
ATOM     21  H10 UNK A          37.257  20.761  -0.416  0.00  0.00     0.217 HD
ENDBRANCH  15  20
ENDBRANCH   5  12
BRANCH   6  22
ATOM     22  O2  UNK A          41.532  15.957  -2.795  0.00  0.00    -0.355 OA
ATOM     23  H6  UNK A          42.480  15.782  -2.914  0.00  0.00     0.218 HD
ENDBRANCH   6  22
BRANCH   8  24
ATOM     24  O3  UNK A          42.154  10.893  -1.628  0.00  0.00    -0.360 OA
ATOM     25  H7  UNK A          42.647  10.179  -1.196  0.00  0.00     0.217 HD
ENDBRANCH   8  24
BRANCH  10  26
ATOM     26  O5  UNK A          39.290  10.388   2.124  0.00  0.00    -0.361 OA
ATOM     27  H8  UNK A          38.780   9.674   1.704  0.00  0.00     0.217 HD
ENDBRANCH  10  26
TORSDOF 6
ENDMDL
MODEL 3
REMARK VINA RESULT:      -6.9      1.015      1.558
REMARK  6 active torsions:
REMARK  status: ('A' for Active; 'I' for Inactive)
REMARK    1  A    between atoms: O2_2  and  C5_12 
REMARK    2  A    between atoms: O3_3  and  C7_14 
REMARK    3  A    between atoms: O5_5  and  C9_16 
REMARK    4  A    between atoms: O6_6  and  C13_20 
REMARK    5  A    between atoms: O7_7  and  C15_22 
REMARK    6  A    between atoms: C3_10  and  C4_11 
ROOT
ATOM      1  O1  UNK A          39.389  16.329  -0.214  0.00  0.00    -0.306 OA
ATOM      2  O4  UNK A          40.596  18.760  -3.254  0.00  0.00    -0.284 OA
ATOM      3  C1  UNK A          39.415  18.535  -1.226  0.00  0.00     0.084 A 
ATOM      4  C2  UNK A          39.033  17.653  -0.217  0.00  0.00     0.096 A 
ATOM      5  C3  UNK A          40.174  15.852  -1.252  0.00  0.00     0.123 A 
ATOM      6  C5  UNK A          40.601  16.596  -2.289  0.00  0.00     0.152 A 
ATOM      7  C6  UNK A          40.236  18.033  -2.338  0.00  0.00     0.223 A 
ATOM      8  C7  UNK A          39.020  19.875  -1.177  0.00  0.00     0.085 A 
ATOM      9  C8  UNK A          38.252  18.105   0.847  0.00  0.00     0.075 A 
ATOM     10  C9  UNK A          37.857  19.442   0.900  0.00  0.00     0.071 A 
ATOM     11  C11 UNK A          38.241  20.324  -0.112  0.00  0.00     0.074 A 
ENDROOT
BRANCH   5  12
ATOM     12  C4  UNK A          40.484  14.417  -1.127  0.00  0.00     0.004 A 
ATOM     13  C10 UNK A          39.614  13.572  -0.438  0.00  0.00     0.053 A 
ATOM     14  C13 UNK A          39.907  12.214  -0.321  0.00  0.00     0.099 A 
ATOM     15  C15 UNK A          41.072  11.700  -0.891  0.00  0.00     0.098 A 
ATOM     16  C14 UNK A          41.943  12.545  -1.579  0.00  0.00     0.040 A 
ATOM     17  C12 UNK A          41.649  13.904  -1.698  0.00  0.00     0.017 A 
BRANCH  14  18
ATOM     18  O6  UNK A          39.051  11.399   0.355  0.00  0.00    -0.358 OA
ATOM     19  H9  UNK A          38.153  11.499   0.001  0.00  0.00     0.217 HD
ENDBRANCH  14  18
BRANCH  15  20
ATOM     20  O7  UNK A          41.369  10.375  -0.784  0.00  0.00    -0.358 OA
ATOM     21  H10 UNK A          41.109   9.914  -1.597  0.00  0.00     0.217 HD
ENDBRANCH  15  20
ENDBRANCH   5  12
BRANCH   6  22
ATOM     22  O2  UNK A          41.353  16.083  -3.324  0.00  0.00    -0.355 OA
ATOM     23  H6  UNK A          42.061  15.521  -2.970  0.00  0.00     0.218 HD
ENDBRANCH   6  22
BRANCH   8  24
ATOM     24  O3  UNK A          39.366  20.778  -2.137  0.00  0.00    -0.360 OA
ATOM     25  H7  UNK A          39.838  20.340  -2.862  0.00  0.00     0.217 HD
ENDBRANCH   8  24
BRANCH  10  26
ATOM     26  O5  UNK A          37.096  19.885   1.936  0.00  0.00    -0.361 OA
ATOM     27  H8  UNK A          37.623  20.501   2.475  0.00  0.00     0.217 HD
ENDBRANCH  10  26
TORSDOF 6
ENDMDL
MODEL 4
REMARK VINA RESULT:      -6.5     10.049     11.626
REMARK  6 active torsions:
REMARK  status: ('A' for Active; 'I' for Inactive)
REMARK    1  A    between atoms: O2_2  and  C5_12 
REMARK    2  A    between atoms: O3_3  and  C7_14 
REMARK    3  A    between atoms: O5_5  and  C9_16 
REMARK    4  A    between atoms: O6_6  and  C13_20 
REMARK    5  A    between atoms: O7_7  and  C15_22 
REMARK    6  A    between atoms: C3_10  and  C4_11 
ROOT
ATOM      1  O1  UNK A          46.265  11.284  -7.459  0.00  0.00    -0.306 OA
ATOM      2  O4  UNK A          48.273  12.071 -10.917  0.00  0.00    -0.284 OA
ATOM      3  C1  UNK A          46.268  11.382  -9.884  0.00  0.00     0.084 A 
ATOM      4  C2  UNK A          45.638  11.129  -8.668  0.00  0.00     0.096 A 
ATOM      5  C3  UNK A          47.579  11.725  -7.447  0.00  0.00     0.123 A 
ATOM      6  C5  UNK A          48.302  11.996  -8.549  0.00  0.00     0.152 A 
ATOM      7  C6  UNK A          47.667  11.838  -9.880  0.00  0.00     0.223 A 
ATOM      8  C7  UNK A          45.578  11.205 -11.086  0.00  0.00     0.085 A 
ATOM      9  C8  UNK A          44.312  10.694  -8.646  0.00  0.00     0.075 A 
ATOM     10  C9  UNK A          43.620  10.516  -9.844  0.00  0.00     0.071 A 
ATOM     11  C11 UNK A          44.253  10.771 -11.062  0.00  0.00     0.074 A 
ENDROOT
BRANCH   5  12
ATOM     12  C4  UNK A          48.132  11.850  -6.087  0.00  0.00     0.004 A 
ATOM     13  C10 UNK A          48.145  13.090  -5.449  0.00  0.00     0.053 A 
ATOM     14  C13 UNK A          48.667  13.207  -4.162  0.00  0.00     0.099 A 
ATOM     15  C15 UNK A          49.179  12.084  -3.512  0.00  0.00     0.098 A 
ATOM     16  C14 UNK A          49.167  10.843  -4.150  0.00  0.00     0.040 A 
ATOM     17  C12 UNK A          48.643  10.726  -5.437  0.00  0.00     0.017 A 
BRANCH  14  18
ATOM     18  O6  UNK A          48.675  14.423  -3.549  0.00  0.00    -0.358 OA
ATOM     19  H9  UNK A          48.747  14.306  -2.588  0.00  0.00     0.217 HD
ENDBRANCH  14  18
BRANCH  15  20
ATOM     20  O7  UNK A          49.690  12.185  -2.253  0.00  0.00    -0.358 OA
ATOM     21  H10 UNK A          50.325  11.468  -2.099  0.00  0.00     0.217 HD
ENDBRANCH  15  20
ENDBRANCH   5  12
BRANCH   6  22
ATOM     22  O2  UNK A          49.619  12.402  -8.505  0.00  0.00    -0.355 OA
ATOM     23  H6  UNK A          49.664  13.369  -8.427  0.00  0.00     0.218 HD
ENDBRANCH   6  22
BRANCH   8  24
ATOM     24  O3  UNK A          46.148  11.438 -12.302  0.00  0.00    -0.360 OA
ATOM     25  H7  UNK A          46.072  10.656 -12.869  0.00  0.00     0.217 HD
ENDBRANCH   8  24
BRANCH  10  26
ATOM     26  O5  UNK A          42.327  10.092  -9.826  0.00  0.00    -0.361 OA
ATOM     27  H8  UNK A          42.138   9.691  -8.960  0.00  0.00     0.217 HD
ENDBRANCH  10  26
TORSDOF 6
ENDMDL
MODEL 5
REMARK VINA RESULT:      -6.4     10.450     12.426
REMARK  6 active torsions:
REMARK  status: ('A' for Active; 'I' for Inactive)
REMARK    1  A    between atoms: O2_2  and  C5_12 
REMARK    2  A    between atoms: O3_3  and  C7_14 
REMARK    3  A    between atoms: O5_5  and  C9_16 
REMARK    4  A    between atoms: O6_6  and  C13_20 
REMARK    5  A    between atoms: O7_7  and  C15_22 
REMARK    6  A    between atoms: C3_10  and  C4_11 
ROOT
ATOM      1  O1  UNK A          46.317  11.273  -7.998  0.00  0.00    -0.306 OA
ATOM      2  O4  UNK A          47.759   7.566  -8.884  0.00  0.00    -0.284 OA
ATOM      3  C1  UNK A          45.975   9.102  -9.026  0.00  0.00     0.084 A 
ATOM      4  C2  UNK A          45.540  10.383  -8.691  0.00  0.00     0.096 A 
ATOM      5  C3  UNK A          47.595  10.887  -7.626  0.00  0.00     0.123 A 
ATOM      6  C5  UNK A          48.131   9.679  -7.879  0.00  0.00     0.152 A 
ATOM      7  C6  UNK A          47.325   8.680  -8.622  0.00  0.00     0.223 A 
ATOM      8  C7  UNK A          45.137   8.235  -9.733  0.00  0.00     0.085 A 
ATOM      9  C8  UNK A          44.262  10.805  -9.061  0.00  0.00     0.075 A 
ATOM     10  C9  UNK A          43.423   9.943  -9.767  0.00  0.00     0.071 A 
ATOM     11  C11 UNK A          43.861   8.660 -10.102  0.00  0.00     0.074 A 
ENDROOT
BRANCH   5  12
ATOM     12  C4  UNK A          48.322  11.936  -6.889  0.00  0.00     0.004 A 
ATOM     13  C10 UNK A          48.190  12.036  -5.504  0.00  0.00     0.053 A 
ATOM     14  C13 UNK A          48.879  13.027  -4.807  0.00  0.00     0.099 A 
ATOM     15  C15 UNK A          49.699  13.922  -5.495  0.00  0.00     0.098 A 
ATOM     16  C14 UNK A          49.831  13.823  -6.880  0.00  0.00     0.040 A 
ATOM     17  C12 UNK A          49.143  12.830  -7.577  0.00  0.00     0.017 A 
BRANCH  14  18
ATOM     18  O6  UNK A          48.741  13.116  -3.455  0.00  0.00    -0.358 OA
ATOM     19  H9  UNK A          48.201  12.377  -3.130  0.00  0.00     0.217 HD
ENDBRANCH  14  18
BRANCH  15  20
ATOM     20  O7  UNK A          50.378  14.895  -4.825  0.00  0.00    -0.358 OA
ATOM     21  H10 UNK A          51.030  14.489  -4.231  0.00  0.00     0.217 HD
ENDBRANCH  15  20
ENDBRANCH   5  12
BRANCH   6  22
ATOM     22  O2  UNK A          49.394   9.314  -7.466  0.00  0.00    -0.355 OA
ATOM     23  H6  UNK A          50.032  10.007  -7.703  0.00  0.00     0.218 HD
ENDBRANCH   6  22
BRANCH   8  24
ATOM     24  O3  UNK A          45.513   6.974 -10.085  0.00  0.00    -0.360 OA
ATOM     25  H7  UNK A          44.899   6.605 -10.737  0.00  0.00     0.217 HD
ENDBRANCH   8  24
BRANCH  10  26
ATOM     26  O5  UNK A          42.178  10.352 -10.129  0.00  0.00    -0.361 OA
ATOM     27  H8  UNK A          41.597  10.325  -9.349  0.00  0.00     0.217 HD
ENDBRANCH  10  26
TORSDOF 6
ENDMDL
MODEL 6
REMARK VINA RESULT:      -6.2      9.786     12.056
REMARK  6 active torsions:
REMARK  status: ('A' for Active; 'I' for Inactive)
REMARK    1  A    between atoms: O2_2  and  C5_12 
REMARK    2  A    between atoms: O3_3  and  C7_14 
REMARK    3  A    between atoms: O5_5  and  C9_16 
REMARK    4  A    between atoms: O6_6  and  C13_20 
REMARK    5  A    between atoms: O7_7  and  C15_22 
REMARK    6  A    between atoms: C3_10  and  C4_11 
ROOT
ATOM      1  O1  UNK A          45.856  11.215  -7.721  0.00  0.00    -0.306 OA
ATOM      2  O4  UNK A          48.203   8.411  -9.520  0.00  0.00    -0.284 OA
ATOM      3  C1  UNK A          46.070   9.394  -9.311  0.00  0.00     0.084 A 
ATOM      4  C2  UNK A          45.321  10.372  -8.660  0.00  0.00     0.096 A 
ATOM      5  C3  UNK A          47.203  11.097  -7.417  0.00  0.00     0.123 A 
ATOM      6  C5  UNK A          48.033  10.192  -7.967  0.00  0.00     0.152 A 
ATOM      7  C6  UNK A          47.497   9.255  -8.984  0.00  0.00     0.223 A 
ATOM      8  C7  UNK A          45.469   8.562 -10.259  0.00  0.00     0.085 A 
ATOM      9  C8  UNK A          43.964  10.522  -8.951  0.00  0.00     0.075 A 
ATOM     10  C9  UNK A          43.361   9.693  -9.897  0.00  0.00     0.071 A 
ATOM     11  C11 UNK A          44.114   8.714 -10.549  0.00  0.00     0.074 A 
ENDROOT
BRANCH   5  12
ATOM     12  C4  UNK A          47.649  12.061  -6.396  0.00  0.00     0.004 A 
ATOM     13  C10 UNK A          47.848  11.643  -5.080  0.00  0.00     0.053 A 
ATOM     14  C13 UNK A          48.271  12.555  -4.114  0.00  0.00     0.099 A 
ATOM     15  C15 UNK A          48.494  13.888  -4.463  0.00  0.00     0.098 A 
ATOM     16  C14 UNK A          48.295  14.306  -5.779  0.00  0.00     0.040 A 
ATOM     17  C12 UNK A          47.872  13.394  -6.745  0.00  0.00     0.017 A 
BRANCH  14  18
ATOM     18  O6  UNK A          48.461  12.136  -2.832  0.00  0.00    -0.358 OA
ATOM     19  H9  UNK A          48.538  11.168  -2.812  0.00  0.00     0.217 HD
ENDBRANCH  14  18
BRANCH  15  20
ATOM     20  O7  UNK A          48.909  14.788  -3.529  0.00  0.00    -0.358 OA
ATOM     21  H10 UNK A          49.862  14.943  -3.623  0.00  0.00     0.217 HD
ENDBRANCH  15  20
ENDBRANCH   5  12
BRANCH   6  22
ATOM     22  O2  UNK A          49.361  10.079  -7.619  0.00  0.00    -0.355 OA
ATOM     23  H6  UNK A          49.797  10.944  -7.694  0.00  0.00     0.218 HD
ENDBRANCH   6  22
BRANCH   8  24
ATOM     24  O3  UNK A          46.156   7.591 -10.924  0.00  0.00    -0.360 OA
ATOM     25  H7  UNK A          45.970   6.720 -10.542  0.00  0.00     0.217 HD
ENDBRANCH   8  24
BRANCH  10  26
ATOM     26  O5  UNK A          42.040   9.837 -10.183  0.00  0.00    -0.361 OA
ATOM     27  H8  UNK A          41.923   9.838 -11.149  0.00  0.00     0.217 HD
ENDBRANCH  10  26
TORSDOF 6
ENDMDL
MODEL 7
REMARK VINA RESULT:      -6.1      9.744     12.214
REMARK  6 active torsions:
REMARK  status: ('A' for Active; 'I' for Inactive)
REMARK    1  A    between atoms: O2_2  and  C5_12 
REMARK    2  A    between atoms: O3_3  and  C7_14 
REMARK    3  A    between atoms: O5_5  and  C9_16 
REMARK    4  A    between atoms: O6_6  and  C13_20 
REMARK    5  A    between atoms: O7_7  and  C15_22 
REMARK    6  A    between atoms: C3_10  and  C4_11 
ROOT
ATOM      1  O1  UNK A          45.871  11.143  -7.858  0.00  0.00    -0.306 OA
ATOM      2  O4  UNK A          47.905   7.896  -9.247  0.00  0.00    -0.284 OA
ATOM      3  C1  UNK A          45.923   9.174  -9.276  0.00  0.00     0.084 A 
ATOM      4  C2  UNK A          45.281  10.299  -8.763  0.00  0.00     0.096 A 
ATOM      5  C3  UNK A          47.166  10.872  -7.447  0.00  0.00     0.123 A 
ATOM      6  C5  UNK A          47.892   9.816  -7.859  0.00  0.00     0.152 A 
ATOM      7  C6  UNK A          47.293   8.873  -8.834  0.00  0.00     0.223 A 
ATOM      8  C7  UNK A          45.271   8.349 -10.196  0.00  0.00     0.085 A 
ATOM      9  C8  UNK A          43.980  10.605  -9.165  0.00  0.00     0.075 A 
ATOM     10  C9  UNK A          43.326   9.783 -10.083  0.00  0.00     0.071 A 
ATOM     11  C11 UNK A          43.971   8.657 -10.597  0.00  0.00     0.074 A 
ENDROOT
BRANCH   5  12
ATOM     12  C4  UNK A          47.680  11.854  -6.477  0.00  0.00     0.004 A 
ATOM     13  C10 UNK A          48.570  12.846  -6.890  0.00  0.00     0.053 A 
ATOM     14  C13 UNK A          49.054  13.776  -5.972  0.00  0.00     0.099 A 
ATOM     15  C15 UNK A          48.650  13.715  -4.638  0.00  0.00     0.098 A 
ATOM     16  C14 UNK A          47.760  12.724  -4.223  0.00  0.00     0.040 A 
ATOM     17  C12 UNK A          47.275  11.794  -5.143  0.00  0.00     0.017 A 
BRANCH  14  18
ATOM     18  O6  UNK A          49.924  14.739  -6.387  0.00  0.00    -0.358 OA
ATOM     19  H9  UNK A          49.436  15.547  -6.613  0.00  0.00     0.217 HD
ENDBRANCH  14  18
BRANCH  15  20
ATOM     20  O7  UNK A          49.116  14.619  -3.731  0.00  0.00    -0.358 OA
ATOM     21  H10 UNK A          48.816  15.510  -3.974  0.00  0.00     0.217 HD
ENDBRANCH  15  20
ENDBRANCH   5  12
BRANCH   6  22
ATOM     22  O2  UNK A          49.167   9.556  -7.406  0.00  0.00    -0.355 OA
ATOM     23  H6  UNK A          49.542   8.802  -7.889  0.00  0.00     0.218 HD
ENDBRANCH   6  22
BRANCH   8  24
ATOM     24  O3  UNK A          45.854   7.238 -10.728  0.00  0.00    -0.360 OA
ATOM     25  H7  UNK A          45.558   6.442 -10.260  0.00  0.00     0.217 HD
ENDBRANCH   8  24
BRANCH  10  26
ATOM     26  O5  UNK A          42.058  10.079 -10.477  0.00  0.00    -0.361 OA
ATOM     27  H8  UNK A          41.479   9.325 -10.271  0.00  0.00     0.217 HD
ENDBRANCH  10  26
TORSDOF 6
ENDMDL
MODEL 8
REMARK VINA RESULT:      -6.1     10.048     11.894
REMARK  6 active torsions:
REMARK  status: ('A' for Active; 'I' for Inactive)
REMARK    1  A    between atoms: O2_2  and  C5_12 
REMARK    2  A    between atoms: O3_3  and  C7_14 
REMARK    3  A    between atoms: O5_5  and  C9_16 
REMARK    4  A    between atoms: O6_6  and  C13_20 
REMARK    5  A    between atoms: O7_7  and  C15_22 
REMARK    6  A    between atoms: C3_10  and  C4_11 
ROOT
ATOM      1  O1  UNK A          46.953  11.984  -7.184  0.00  0.00    -0.306 OA
ATOM      2  O4  UNK A          49.650   8.957  -6.771  0.00  0.00    -0.284 OA
ATOM      3  C1  UNK A          48.857  11.043  -6.009  0.00  0.00     0.084 A 
ATOM      4  C2  UNK A          47.908  12.045  -6.203  0.00  0.00     0.096 A 
ATOM      5  C3  UNK A          46.922  10.871  -8.009  0.00  0.00     0.123 A 
ATOM      6  C5  UNK A          47.785   9.841  -7.933  0.00  0.00     0.152 A 
ATOM      7  C6  UNK A          48.839   9.866  -6.890  0.00  0.00     0.223 A 
ATOM      8  C7  UNK A          49.809  11.161  -4.993  0.00  0.00     0.085 A 
ATOM      9  C8  UNK A          47.907  13.173  -5.382  0.00  0.00     0.075 A 
ATOM     10  C9  UNK A          48.855  13.294  -4.366  0.00  0.00     0.071 A 
ATOM     11  C11 UNK A          49.805  12.289  -4.173  0.00  0.00     0.074 A 
ENDROOT
BRANCH   5  12
ATOM     12  C4  UNK A          45.849  10.932  -9.017  0.00  0.00     0.004 A 
ATOM     13  C10 UNK A          44.608  10.351  -8.753  0.00  0.00     0.053 A 
ATOM     14  C13 UNK A          43.593  10.410  -9.706  0.00  0.00     0.099 A 
ATOM     15  C15 UNK A          43.818  11.048 -10.926  0.00  0.00     0.098 A 
ATOM     16  C14 UNK A          45.058  11.628 -11.192  0.00  0.00     0.040 A 
ATOM     17  C12 UNK A          46.074  11.570 -10.237  0.00  0.00     0.017 A 
BRANCH  14  18
ATOM     18  O6  UNK A          42.386   9.839  -9.437  0.00  0.00    -0.358 OA
ATOM     19  H9  UNK A          42.518   8.993  -8.980  0.00  0.00     0.217 HD
ENDBRANCH  14  18
BRANCH  15  20
ATOM     20  O7  UNK A          42.833  11.113 -11.865  0.00  0.00    -0.358 OA
ATOM     21  H10 UNK A          42.395  11.978 -11.821  0.00  0.00     0.217 HD
ENDBRANCH  15  20
ENDBRANCH   5  12
BRANCH   6  22
ATOM     22  O2  UNK A          47.747   8.763  -8.791  0.00  0.00    -0.355 OA
ATOM     23  H6  UNK A          47.206   8.054  -8.407  0.00  0.00     0.218 HD
ENDBRANCH   6  22
BRANCH   8  24
ATOM     24  O3  UNK A          50.758  10.210  -4.762  0.00  0.00    -0.360 OA
ATOM     25  H7  UNK A          51.568  10.412  -5.253  0.00  0.00     0.217 HD
ENDBRANCH   8  24
BRANCH  10  26
ATOM     26  O5  UNK A          48.856  14.392  -3.564  0.00  0.00    -0.361 OA
ATOM     27  H8  UNK A          49.772  14.603  -3.316  0.00  0.00     0.217 HD
ENDBRANCH  10  26
TORSDOF 6
ENDMDL
MODEL 9
REMARK VINA RESULT:      -6.0      9.941     11.655
REMARK  6 active torsions:
REMARK  status: ('A' for Active; 'I' for Inactive)
REMARK    1  A    between atoms: O2_2  and  C5_12 
REMARK    2  A    between atoms: O3_3  and  C7_14 
REMARK    3  A    between atoms: O5_5  and  C9_16 
REMARK    4  A    between atoms: O6_6  and  C13_20 
REMARK    5  A    between atoms: O7_7  and  C15_22 
REMARK    6  A    between atoms: C3_10  and  C4_11 
ROOT
ATOM      1  O1  UNK A          47.361  11.875  -7.034  0.00  0.00    -0.306 OA
ATOM      2  O4  UNK A          50.655  12.950  -9.180  0.00  0.00    -0.284 OA
ATOM      3  C1  UNK A          49.404  13.175  -7.194  0.00  0.00     0.084 A 
ATOM      4  C2  UNK A          48.259  12.768  -6.512  0.00  0.00     0.096 A 
ATOM      5  C3  UNK A          47.611  11.344  -8.290  0.00  0.00     0.123 A 
ATOM      6  C5  UNK A          48.673  11.659  -9.055  0.00  0.00     0.152 A 
ATOM      7  C6  UNK A          49.668  12.625  -8.532  0.00  0.00     0.223 A 
ATOM      8  C7  UNK A          50.284  14.091  -6.611  0.00  0.00     0.085 A 
ATOM      9  C8  UNK A          47.986  13.277  -5.241  0.00  0.00     0.075 A 
ATOM     10  C9  UNK A          48.862  14.191  -4.656  0.00  0.00     0.071 A 
ATOM     11  C11 UNK A          50.009  14.597  -5.341  0.00  0.00     0.074 A 
ENDROOT
BRANCH   5  12
ATOM     12  C4  UNK A          46.570  10.399  -8.732  0.00  0.00     0.004 A 
ATOM     13  C10 UNK A          45.231  10.788  -8.741  0.00  0.00     0.053 A 
ATOM     14  C13 UNK A          44.247   9.894  -9.160  0.00  0.00     0.099 A 
ATOM     15  C15 UNK A          44.602   8.608  -9.570  0.00  0.00     0.098 A 
ATOM     16  C14 UNK A          45.941   8.218  -9.562  0.00  0.00     0.040 A 
ATOM     17  C12 UNK A          46.925   9.113  -9.143  0.00  0.00     0.017 A 
BRANCH  14  18
ATOM     18  O6  UNK A          42.942  10.284  -9.163  0.00  0.00    -0.358 OA
ATOM     19  H9  UNK A          42.369   9.515  -9.015  0.00  0.00     0.217 HD
ENDBRANCH  14  18
BRANCH  15  20
ATOM     20  O7  UNK A          43.649   7.726  -9.984  0.00  0.00    -0.358 OA
ATOM     21  H10 UNK A          43.182   7.364  -9.214  0.00  0.00     0.217 HD
ENDBRANCH  15  20
ENDBRANCH   5  12
BRANCH   6  22
ATOM     22  O2  UNK A          48.875  11.137 -10.314  0.00  0.00    -0.355 OA
ATOM     23  H6  UNK A          49.457  10.362 -10.261  0.00  0.00     0.218 HD
ENDBRANCH   6  22
BRANCH   8  24
ATOM     24  O3  UNK A          51.417  14.520  -7.235  0.00  0.00    -0.360 OA
ATOM     25  H7  UNK A          52.014  13.777  -7.406  0.00  0.00     0.217 HD
ENDBRANCH   8  24
BRANCH  10  26
ATOM     26  O5  UNK A          48.598  14.689  -3.418  0.00  0.00    -0.361 OA
ATOM     27  H8  UNK A          49.435  14.942  -2.993  0.00  0.00     0.217 HD
ENDBRANCH  10  26
TORSDOF 6
ENDMDL
MODEL 10
REMARK VINA RESULT:      -6.0     10.488     12.507
REMARK  6 active torsions:
REMARK  status: ('A' for Active; 'I' for Inactive)
REMARK    1  A    between atoms: O2_2  and  C5_12 
REMARK    2  A    between atoms: O3_3  and  C7_14 
REMARK    3  A    between atoms: O5_5  and  C9_16 
REMARK    4  A    between atoms: O6_6  and  C13_20 
REMARK    5  A    between atoms: O7_7  and  C15_22 
REMARK    6  A    between atoms: C3_10  and  C4_11 
ROOT
ATOM      1  O1  UNK A          49.345  12.288  -7.445  0.00  0.00    -0.306 OA
ATOM      2  O4  UNK A          50.544  10.999  -3.769  0.00  0.00    -0.284 OA
ATOM      3  C1  UNK A          50.892  12.466  -5.583  0.00  0.00     0.084 A 
ATOM      4  C2  UNK A          50.432  12.860  -6.838  0.00  0.00     0.096 A 
ATOM      5  C3  UNK A          48.666  11.283  -6.774  0.00  0.00     0.123 A 
ATOM      6  C5  UNK A          49.010  10.806  -5.564  0.00  0.00     0.152 A 
ATOM      7  C6  UNK A          50.183  11.391  -4.872  0.00  0.00     0.223 A 
ATOM      8  C7  UNK A          52.008  13.085  -5.014  0.00  0.00     0.085 A 
ATOM      9  C8  UNK A          51.089  13.876  -7.534  0.00  0.00     0.075 A 
ATOM     10  C9  UNK A          52.204  14.497  -6.969  0.00  0.00     0.071 A 
ATOM     11  C11 UNK A          52.661  14.101  -5.711  0.00  0.00     0.074 A 
ENDROOT
BRANCH   5  12
ATOM     12  C4  UNK A          47.519  10.757  -7.536  0.00  0.00     0.004 A 
ATOM     13  C10 UNK A          46.306  11.446  -7.538  0.00  0.00     0.053 A 
ATOM     14  C13 UNK A          45.222  10.948  -8.260  0.00  0.00     0.099 A 
ATOM     15  C15 UNK A          45.350   9.759  -8.979  0.00  0.00     0.098 A 
ATOM     16  C14 UNK A          46.562   9.069  -8.977  0.00  0.00     0.040 A 
ATOM     17  C12 UNK A          47.647   9.568  -8.255  0.00  0.00     0.017 A 
BRANCH  14  18
ATOM     18  O6  UNK A          44.043  11.629  -8.254  0.00  0.00    -0.358 OA
ATOM     19  H9  UNK A          43.318  11.032  -8.502  0.00  0.00     0.217 HD
ENDBRANCH  14  18
BRANCH  15  20
ATOM     20  O7  UNK A          44.298   9.263  -9.689  0.00  0.00    -0.358 OA
ATOM     21  H10 UNK A          43.465   9.558  -9.289  0.00  0.00     0.217 HD
ENDBRANCH  15  20
ENDBRANCH   5  12
BRANCH   6  22
ATOM     22  O2  UNK A          48.332   9.782  -4.938  0.00  0.00    -0.355 OA
ATOM     23  H6  UNK A          47.409  10.041  -4.787  0.00  0.00     0.218 HD
ENDBRANCH   6  22
BRANCH   8  24
ATOM     24  O3  UNK A          52.497  12.737  -3.790  0.00  0.00    -0.360 OA
ATOM     25  H7  UNK A          53.041  11.938  -3.856  0.00  0.00     0.217 HD
ENDBRANCH   8  24
BRANCH  10  26
ATOM     26  O5  UNK A          52.845  15.488  -7.645  0.00  0.00    -0.361 OA
ATOM     27  H8  UNK A          52.195  15.980  -8.175  0.00  0.00     0.217 HD
ENDBRANCH  10  26
TORSDOF 6
ENDMDL
MODEL 11
REMARK VINA RESULT:      -6.0     10.656     12.515
REMARK  6 active torsions:
REMARK  status: ('A' for Active; 'I' for Inactive)
REMARK    1  A    between atoms: O2_2  and  C5_12 
REMARK    2  A    between atoms: O3_3  and  C7_14 
REMARK    3  A    between atoms: O5_5  and  C9_16 
REMARK    4  A    between atoms: O6_6  and  C13_20 
REMARK    5  A    between atoms: O7_7  and  C15_22 
REMARK    6  A    between atoms: C3_10  and  C4_11 
ROOT
ATOM      1  O1  UNK A          49.982  10.072  -4.755  0.00  0.00    -0.306 OA
ATOM      2  O4  UNK A          47.746  13.210  -6.083  0.00  0.00    -0.284 OA
ATOM      3  C1  UNK A          48.416  10.968  -6.378  0.00  0.00     0.084 A 
ATOM      4  C2  UNK A          49.203   9.935  -5.874  0.00  0.00     0.096 A 
ATOM      5  C3  UNK A          49.975  11.288  -4.089  0.00  0.00     0.123 A 
ATOM      6  C5  UNK A          49.267  12.365  -4.475  0.00  0.00     0.152 A 
ATOM      7  C6  UNK A          48.413  12.264  -5.684  0.00  0.00     0.223 A 
ATOM      8  C7  UNK A          47.643  10.770  -7.525  0.00  0.00     0.085 A 
ATOM      9  C8  UNK A          49.224   8.696  -6.517  0.00  0.00     0.075 A 
ATOM     10  C9  UNK A          48.453   8.495  -7.662  0.00  0.00     0.071 A 
ATOM     11  C11 UNK A          47.664   9.531  -8.165  0.00  0.00     0.074 A 
ENDROOT
BRANCH   5  12
ATOM     12  C4  UNK A          50.852  11.300  -2.905  0.00  0.00     0.004 A 
ATOM     13  C10 UNK A          50.316  11.087  -1.635  0.00  0.00     0.053 A 
ATOM     14  C13 UNK A          51.146  11.097  -0.516  0.00  0.00     0.099 A 
ATOM     15  C15 UNK A          52.515  11.324  -0.665  0.00  0.00     0.098 A 
ATOM     16  C14 UNK A          53.052  11.537  -1.934  0.00  0.00     0.040 A 
ATOM     17  C12 UNK A          52.221  11.526  -3.055  0.00  0.00     0.017 A 
BRANCH  14  18
ATOM     18  O6  UNK A          50.611  10.889   0.719  0.00  0.00    -0.358 OA
ATOM     19  H9  UNK A          50.433  11.742   1.148  0.00  0.00     0.217 HD
ENDBRANCH  14  18
BRANCH  15  20
ATOM     20  O7  UNK A          53.337  11.335   0.421  0.00  0.00    -0.358 OA
ATOM     21  H10 UNK A          52.815  11.484   1.226  0.00  0.00     0.217 HD
ENDBRANCH  15  20
ENDBRANCH   5  12
BRANCH   6  22
ATOM     22  O2  UNK A          49.307  13.570  -3.808  0.00  0.00    -0.355 OA
ATOM     23  H6  UNK A          48.425  13.979  -3.812  0.00  0.00     0.218 HD
ENDBRANCH   6  22
BRANCH   8  24
ATOM     24  O3  UNK A          46.856  11.747  -8.058  0.00  0.00    -0.360 OA
ATOM     25  H7  UNK A          46.496  12.313  -7.359  0.00  0.00     0.217 HD
ENDBRANCH   8  24
BRANCH  10  26
ATOM     26  O5  UNK A          48.472   7.288  -8.290  0.00  0.00    -0.361 OA
ATOM     27  H8  UNK A          48.657   6.594  -7.635  0.00  0.00     0.217 HD
ENDBRANCH  10  26
TORSDOF 6
ENDMDL
MODEL 12
REMARK VINA RESULT:      -6.0      9.749     13.417
REMARK  6 active torsions:
REMARK  status: ('A' for Active; 'I' for Inactive)
REMARK    1  A    between atoms: O2_2  and  C5_12 
REMARK    2  A    between atoms: O3_3  and  C7_14 
REMARK    3  A    between atoms: O5_5  and  C9_16 
REMARK    4  A    between atoms: O6_6  and  C13_20 
REMARK    5  A    between atoms: O7_7  and  C15_22 
REMARK    6  A    between atoms: C3_10  and  C4_11 
ROOT
ATOM      1  O1  UNK A          48.649   9.493  -7.033  0.00  0.00    -0.306 OA
ATOM      2  O4  UNK A          45.919   9.543 -10.058  0.00  0.00    -0.284 OA
ATOM      3  C1  UNK A          47.593   8.354  -8.897  0.00  0.00     0.084 A 
ATOM      4  C2  UNK A          48.508   8.401  -7.847  0.00  0.00     0.096 A 
ATOM      5  C3  UNK A          47.837  10.595  -7.255  0.00  0.00     0.123 A 
ATOM      6  C5  UNK A          46.921  10.681  -8.238  0.00  0.00     0.152 A 
ATOM      7  C6  UNK A          46.737   9.524  -9.148  0.00  0.00     0.223 A 
ATOM      8  C7  UNK A          47.494   7.212  -9.696  0.00  0.00     0.085 A 
ATOM      9  C8  UNK A          49.332   7.304  -7.591  0.00  0.00     0.075 A 
ATOM     10  C9  UNK A          49.236   6.162  -8.387  0.00  0.00     0.071 A 
ATOM     11  C11 UNK A          48.318   6.118  -9.438  0.00  0.00     0.074 A 
ENDROOT
BRANCH   5  12
ATOM     12  C4  UNK A          48.090  11.697  -6.311  0.00  0.00     0.004 A 
ATOM     13  C10 UNK A          48.938  12.745  -6.671  0.00  0.00     0.053 A 
ATOM     14  C13 UNK A          49.177  13.788  -5.778  0.00  0.00     0.099 A 
ATOM     15  C15 UNK A          48.569  13.784  -4.522  0.00  0.00     0.098 A 
ATOM     16  C14 UNK A          47.721  12.737  -4.161  0.00  0.00     0.040 A 
ATOM     17  C12 UNK A          47.482  11.693  -5.056  0.00  0.00     0.017 A 
BRANCH  14  18
ATOM     18  O6  UNK A          50.007  14.805  -6.140  0.00  0.00    -0.358 OA
ATOM     19  H9  UNK A          49.517  15.643  -6.147  0.00  0.00     0.217 HD
ENDBRANCH  14  18
BRANCH  15  20
ATOM     20  O7  UNK A          48.793  14.799  -3.641  0.00  0.00    -0.358 OA
ATOM     21  H10 UNK A          48.433  15.626  -3.996  0.00  0.00     0.217 HD
ENDBRANCH  15  20
ENDBRANCH   5  12
BRANCH   6  22
ATOM     22  O2  UNK A          46.152  11.803  -8.453  0.00  0.00    -0.355 OA
ATOM     23  H6  UNK A          45.741  11.758  -9.332  0.00  0.00     0.218 HD
ENDBRANCH   6  22
BRANCH   8  24
ATOM     24  O3  UNK A          46.616   7.116 -10.734  0.00  0.00    -0.360 OA
ATOM     25  H7  UNK A          46.440   7.990 -11.113  0.00  0.00     0.217 HD
ENDBRANCH   8  24
BRANCH  10  26
ATOM     26  O5  UNK A          50.038   5.092  -8.139  0.00  0.00    -0.361 OA
ATOM     27  H8  UNK A          49.709   4.327  -8.642  0.00  0.00     0.217 HD
ENDBRANCH  10  26
TORSDOF 6
ENDMDL
MODEL 13
REMARK VINA RESULT:      -5.9     10.031     12.454
REMARK  6 active torsions:
REMARK  status: ('A' for Active; 'I' for Inactive)
REMARK    1  A    between atoms: O2_2  and  C5_12 
REMARK    2  A    between atoms: O3_3  and  C7_14 
REMARK    3  A    between atoms: O5_5  and  C9_16 
REMARK    4  A    between atoms: O6_6  and  C13_20 
REMARK    5  A    between atoms: O7_7  and  C15_22 
REMARK    6  A    between atoms: C3_10  and  C4_11 
ROOT
ATOM      1  O1  UNK A          48.700  12.408  -8.635  0.00  0.00    -0.306 OA
ATOM      2  O4  UNK A          45.076  11.078  -9.943  0.00  0.00    -0.284 OA
ATOM      3  C1  UNK A          47.193  11.965 -10.485  0.00  0.00     0.084 A 
ATOM      4  C2  UNK A          48.412  12.407  -9.975  0.00  0.00     0.096 A 
ATOM      5  C3  UNK A          47.742  11.935  -7.752  0.00  0.00     0.123 A 
ATOM      6  C5  UNK A          46.525  11.488  -8.114  0.00  0.00     0.152 A 
ATOM      7  C6  UNK A          46.167  11.474  -9.553  0.00  0.00     0.223 A 
ATOM      8  C7  UNK A          46.954  11.989 -11.862  0.00  0.00     0.085 A 
ATOM      9  C8  UNK A          49.400  12.880 -10.839  0.00  0.00     0.075 A 
ATOM     10  C9  UNK A          49.166  12.906 -12.214  0.00  0.00     0.071 A 
ATOM     11  C11 UNK A          47.944  12.461 -12.724  0.00  0.00     0.074 A 
ENDROOT
BRANCH   5  12
ATOM     12  C4  UNK A          48.178  11.989  -6.346  0.00  0.00     0.004 A 
ATOM     13  C10 UNK A          48.156  13.201  -5.654  0.00  0.00     0.053 A 
ATOM     14  C13 UNK A          48.568  13.252  -4.323  0.00  0.00     0.099 A 
ATOM     15  C15 UNK A          49.005  12.091  -3.683  0.00  0.00     0.098 A 
ATOM     16  C14 UNK A          49.028  10.880  -4.374  0.00  0.00     0.040 A 
ATOM     17  C12 UNK A          48.615  10.829  -5.706  0.00  0.00     0.017 A 
BRANCH  14  18
ATOM     18  O6  UNK A          48.543  14.440  -3.658  0.00  0.00    -0.358 OA
ATOM     19  H9  UNK A          47.676  14.564  -3.240  0.00  0.00     0.217 HD
ENDBRANCH  14  18
BRANCH  15  20
ATOM     20  O7  UNK A          49.409  12.128  -2.382  0.00  0.00    -0.358 OA
ATOM     21  H10 UNK A          48.643  12.015  -1.798  0.00  0.00     0.217 HD
ENDBRANCH  15  20
ENDBRANCH   5  12
BRANCH   6  22
ATOM     22  O2  UNK A          45.582  11.054  -7.207  0.00  0.00    -0.355 OA
ATOM     23  H6  UNK A          45.407  11.752  -6.554  0.00  0.00     0.218 HD
ENDBRANCH   6  22
BRANCH   8  24
ATOM     24  O3  UNK A          45.781  11.568 -12.412  0.00  0.00    -0.360 OA
ATOM     25  H7  UNK A          45.027  11.937 -11.929  0.00  0.00     0.217 HD
ENDBRANCH   8  24
BRANCH  10  26
ATOM     26  O5  UNK A          50.128  13.365 -13.059  0.00  0.00    -0.361 OA
ATOM     27  H8  UNK A          49.736  14.028 -13.654  0.00  0.00     0.217 HD
ENDBRANCH  10  26
TORSDOF 6
ENDMDL
MODEL 14
REMARK VINA RESULT:      -5.8     10.492     12.350
REMARK  6 active torsions:
REMARK  status: ('A' for Active; 'I' for Inactive)
REMARK    1  A    between atoms: O2_2  and  C5_12 
REMARK    2  A    between atoms: O3_3  and  C7_14 
REMARK    3  A    between atoms: O5_5  and  C9_16 
REMARK    4  A    between atoms: O6_6  and  C13_20 
REMARK    5  A    between atoms: O7_7  and  C15_22 
REMARK    6  A    between atoms: C3_10  and  C4_11 
ROOT
ATOM      1  O1  UNK A          48.775  10.437  -5.658  0.00  0.00    -0.306 OA
ATOM      2  O4  UNK A          51.169  13.608  -6.565  0.00  0.00    -0.284 OA
ATOM      3  C1  UNK A          50.666  11.845  -5.081  0.00  0.00     0.084 A 
ATOM      4  C2  UNK A          49.811  10.773  -4.827  0.00  0.00     0.096 A 
ATOM      5  C3  UNK A          48.577  11.186  -6.807  0.00  0.00     0.123 A 
ATOM      6  C5  UNK A          49.324  12.248  -7.163  0.00  0.00     0.152 A 
ATOM      7  C6  UNK A          50.453  12.653  -6.292  0.00  0.00     0.223 A 
ATOM      8  C7  UNK A          51.706  12.142  -4.197  0.00  0.00     0.085 A 
ATOM      9  C8  UNK A          49.991   9.994  -3.684  0.00  0.00     0.075 A 
ATOM     10  C9  UNK A          51.028  10.288  -2.799  0.00  0.00     0.071 A 
ATOM     11  C11 UNK A          51.884  11.360  -3.056  0.00  0.00     0.074 A 
ENDROOT
BRANCH   5  12
ATOM     12  C4  UNK A          47.433  10.719  -7.609  0.00  0.00     0.004 A 
ATOM     13  C10 UNK A          46.226  11.418  -7.579  0.00  0.00     0.053 A 
ATOM     14  C13 UNK A          45.144  10.976  -8.340  0.00  0.00     0.099 A 
ATOM     15  C15 UNK A          45.268   9.833  -9.129  0.00  0.00     0.098 A 
ATOM     16  C14 UNK A          46.474   9.133  -9.160  0.00  0.00     0.040 A 
ATOM     17  C12 UNK A          47.557   9.576  -8.400  0.00  0.00     0.017 A 
BRANCH  14  18
ATOM     18  O6  UNK A          43.971  11.666  -8.301  0.00  0.00    -0.358 OA
ATOM     19  H9  UNK A          44.078  12.467  -7.762  0.00  0.00     0.217 HD
ENDBRANCH  14  18
BRANCH  15  20
ATOM     20  O7  UNK A          44.218   9.392  -9.878  0.00  0.00    -0.358 OA
ATOM     21  H10 UNK A          43.569   8.953  -9.305  0.00  0.00     0.217 HD
ENDBRANCH  15  20
ENDBRANCH   5  12
BRANCH   6  22
ATOM     22  O2  UNK A          49.080  12.993  -8.297  0.00  0.00    -0.355 OA
ATOM     23  H6  UNK A          49.527  13.853  -8.228  0.00  0.00     0.218 HD
ENDBRANCH   6  22
BRANCH   8  24
ATOM     24  O3  UNK A          52.568  13.177  -4.399  0.00  0.00    -0.360 OA
ATOM     25  H7  UNK A          52.953  13.132  -5.288  0.00  0.00     0.217 HD
ENDBRANCH   8  24
BRANCH  10  26
ATOM     26  O5  UNK A          51.206   9.528  -1.684  0.00  0.00    -0.361 OA
ATOM     27  H8  UNK A          52.090   9.125  -1.714  0.00  0.00     0.217 HD
ENDBRANCH  10  26
TORSDOF 6
ENDMDL
MODEL 15
REMARK VINA RESULT:      -5.8     10.632     12.512
REMARK  6 active torsions:
REMARK  status: ('A' for Active; 'I' for Inactive)
REMARK    1  A    between atoms: O2_2  and  C5_12 
REMARK    2  A    between atoms: O3_3  and  C7_14 
REMARK    3  A    between atoms: O5_5  and  C9_16 
REMARK    4  A    between atoms: O6_6  and  C13_20 
REMARK    5  A    between atoms: O7_7  and  C15_22 
REMARK    6  A    between atoms: C3_10  and  C4_11 
ROOT
ATOM      1  O1  UNK A          49.286  12.346  -7.757  0.00  0.00    -0.306 OA
ATOM      2  O4  UNK A          50.370  11.834  -3.862  0.00  0.00    -0.284 OA
ATOM      3  C1  UNK A          50.847  12.806  -5.957  0.00  0.00     0.084 A 
ATOM      4  C2  UNK A          50.423  12.941  -7.278  0.00  0.00     0.096 A 
ATOM      5  C3  UNK A          48.517  11.589  -6.887  0.00  0.00     0.123 A 
ATOM      6  C5  UNK A          48.819  11.374  -5.593  0.00  0.00     0.152 A 
ATOM      7  C6  UNK A          50.044  11.993  -5.032  0.00  0.00     0.223 A 
ATOM      8  C7  UNK A          52.018  13.435  -5.525  0.00  0.00     0.085 A 
ATOM      9  C8  UNK A          51.170  13.705  -8.176  0.00  0.00     0.075 A 
ATOM     10  C9  UNK A          52.339  14.335  -7.747  0.00  0.00     0.071 A 
ATOM     11  C11 UNK A          52.761  14.199  -6.424  0.00  0.00     0.074 A 
ENDROOT
BRANCH   5  12
ATOM     12  C4  UNK A          47.325  11.008  -7.529  0.00  0.00     0.004 A 
ATOM     13  C10 UNK A          47.398   9.753  -8.134  0.00  0.00     0.053 A 
ATOM     14  C13 UNK A          46.269   9.204  -8.740  0.00  0.00     0.099 A 
ATOM     15  C15 UNK A          45.066   9.910  -8.743  0.00  0.00     0.098 A 
ATOM     16  C14 UNK A          44.992  11.164  -8.138  0.00  0.00     0.040 A 
ATOM     17  C12 UNK A          46.121  11.714  -7.531  0.00  0.00     0.017 A 
BRANCH  14  18
ATOM     18  O6  UNK A          46.353   7.979  -9.328  0.00  0.00    -0.358 OA
ATOM     19  H9  UNK A          46.284   7.284  -8.653  0.00  0.00     0.217 HD
ENDBRANCH  14  18
BRANCH  15  20
ATOM     20  O7  UNK A          43.955   9.382  -9.330  0.00  0.00    -0.358 OA
ATOM     21  H10 UNK A          43.332  10.093  -9.549  0.00  0.00     0.217 HD
ENDBRANCH  15  20
ENDBRANCH   5  12
BRANCH   6  22
ATOM     22  O2  UNK A          48.051  10.588  -4.762  0.00  0.00    -0.355 OA
ATOM     23  H6  UNK A          47.368  10.130  -5.279  0.00  0.00     0.218 HD
ENDBRANCH   6  22
BRANCH   8  24
ATOM     24  O3  UNK A          52.476  13.335  -4.245  0.00  0.00    -0.360 OA
ATOM     25  H7  UNK A          52.257  12.467  -3.873  0.00  0.00     0.217 HD
ENDBRANCH   8  24
BRANCH  10  26
ATOM     26  O5  UNK A          53.068  15.081  -8.621  0.00  0.00    -0.361 OA
ATOM     27  H8  UNK A          53.448  14.494  -9.297  0.00  0.00     0.217 HD
ENDBRANCH  10  26
TORSDOF 6
ENDMDL
MODEL 16
REMARK VINA RESULT:      -5.8     10.584     12.139
REMARK  6 active torsions:
REMARK  status: ('A' for Active; 'I' for Inactive)
REMARK    1  A    between atoms: O2_2  and  C5_12 
REMARK    2  A    between atoms: O3_3  and  C7_14 
REMARK    3  A    between atoms: O5_5  and  C9_16 
REMARK    4  A    between atoms: O6_6  and  C13_20 
REMARK    5  A    between atoms: O7_7  and  C15_22 
REMARK    6  A    between atoms: C3_10  and  C4_11 
ROOT
ATOM      1  O1  UNK A          47.692  11.152  -6.117  0.00  0.00    -0.306 OA
ATOM      2  O4  UNK A          51.319  10.917  -7.961  0.00  0.00    -0.284 OA
ATOM      3  C1  UNK A          50.112  11.221  -5.957  0.00  0.00     0.084 A 
ATOM      4  C2  UNK A          48.843  11.292  -5.387  0.00  0.00     0.096 A 
ATOM      5  C3  UNK A          47.796  10.916  -7.479  0.00  0.00     0.123 A 
ATOM      6  C5  UNK A          48.959  10.833  -8.152  0.00  0.00     0.152 A 
ATOM      7  C6  UNK A          50.230  10.984  -7.404  0.00  0.00     0.223 A 
ATOM      8  C7  UNK A          51.252  11.373  -5.163  0.00  0.00     0.085 A 
ATOM      9  C8  UNK A          48.705  11.519  -4.017  0.00  0.00     0.075 A 
ATOM     10  C9  UNK A          49.840  11.671  -3.221  0.00  0.00     0.071 A 
ATOM     11  C11 UNK A          51.111  11.599  -3.793  0.00  0.00     0.074 A 
ENDROOT
BRANCH   5  12
ATOM     12  C4  UNK A          46.487  10.784  -8.142  0.00  0.00     0.004 A 
ATOM     13  C10 UNK A          46.007   9.523  -8.497  0.00  0.00     0.053 A 
ATOM     14  C13 UNK A          44.767   9.399  -9.123  0.00  0.00     0.099 A 
ATOM     15  C15 UNK A          44.008  10.537  -9.398  0.00  0.00     0.098 A 
ATOM     16  C14 UNK A          44.487  11.798  -9.044  0.00  0.00     0.040 A 
ATOM     17  C12 UNK A          45.727  11.922  -8.416  0.00  0.00     0.017 A 
BRANCH  14  18
ATOM     18  O6  UNK A          44.310   8.163  -9.466  0.00  0.00    -0.358 OA
ATOM     19  H9  UNK A          43.989   7.701  -8.675  0.00  0.00     0.217 HD
ENDBRANCH  14  18
BRANCH  15  20
ATOM     20  O7  UNK A          42.795  10.428 -10.008  0.00  0.00    -0.358 OA
ATOM     21  H10 UNK A          42.450   9.529  -9.894  0.00  0.00     0.217 HD
ENDBRANCH  15  20
ENDBRANCH   5  12
BRANCH   6  22
ATOM     22  O2  UNK A          49.028  10.630  -9.513  0.00  0.00    -0.355 OA
ATOM     23  H6  UNK A          49.328  11.442  -9.953  0.00  0.00     0.218 HD
ENDBRANCH   6  22
BRANCH   8  24
ATOM     24  O3  UNK A          52.515  11.312  -5.670  0.00  0.00    -0.360 OA
ATOM     25  H7  UNK A          53.069  12.009  -5.287  0.00  0.00     0.217 HD
ENDBRANCH   8  24
BRANCH  10  26
ATOM     26  O5  UNK A          49.708  11.891  -1.885  0.00  0.00    -0.361 OA
ATOM     27  H8  UNK A          48.874  11.494  -1.580  0.00  0.00     0.217 HD
ENDBRANCH  10  26
TORSDOF 6
ENDMDL
MODEL 17
REMARK VINA RESULT:      -5.7     10.435     14.222
REMARK  6 active torsions:
REMARK  status: ('A' for Active; 'I' for Inactive)
REMARK    1  A    between atoms: O2_2  and  C5_12 
REMARK    2  A    between atoms: O3_3  and  C7_14 
REMARK    3  A    between atoms: O5_5  and  C9_16 
REMARK    4  A    between atoms: O6_6  and  C13_20 
REMARK    5  A    between atoms: O7_7  and  C15_22 
REMARK    6  A    between atoms: C3_10  and  C4_11 
ROOT
ATOM      1  O1  UNK A          50.108   9.448  -6.709  0.00  0.00    -0.306 OA
ATOM      2  O4  UNK A          47.167   8.055  -9.164  0.00  0.00    -0.284 OA
ATOM      3  C1  UNK A          49.339   7.774  -8.290  0.00  0.00     0.084 A 
ATOM      4  C2  UNK A          50.305   8.302  -7.434  0.00  0.00     0.096 A 
ATOM      5  C3  UNK A          48.890  10.102  -6.822  0.00  0.00     0.123 A 
ATOM      6  C5  UNK A          47.881   9.702  -7.617  0.00  0.00     0.152 A 
ATOM      7  C6  UNK A          48.051   8.470  -8.424  0.00  0.00     0.223 A 
ATOM      8  C7  UNK A          49.597   6.602  -9.005  0.00  0.00     0.085 A 
ATOM      9  C8  UNK A          51.536   7.662  -7.292  0.00  0.00     0.075 A 
ATOM     10  C9  UNK A          51.797   6.491  -8.005  0.00  0.00     0.071 A 
ATOM     11  C11 UNK A          50.829   5.963  -8.860  0.00  0.00     0.074 A 
ENDROOT
BRANCH   5  12
ATOM     12  C4  UNK A          48.810  11.316  -5.991  0.00  0.00     0.004 A 
ATOM     13  C10 UNK A          49.397  12.503  -6.430  0.00  0.00     0.053 A 
ATOM     14  C13 UNK A          49.319  13.652  -5.644  0.00  0.00     0.099 A 
ATOM     15  C15 UNK A          48.657  13.614  -4.417  0.00  0.00     0.098 A 
ATOM     16  C14 UNK A          48.070  12.427  -3.977  0.00  0.00     0.040 A 
ATOM     17  C12 UNK A          48.147  11.278  -4.764  0.00  0.00     0.017 A 
BRANCH  14  18
ATOM     18  O6  UNK A          49.897  14.805  -6.083  0.00  0.00    -0.358 OA
ATOM     19  H9  UNK A          50.096  14.733  -7.030  0.00  0.00     0.217 HD
ENDBRANCH  14  18
BRANCH  15  20
ATOM     20  O7  UNK A          48.573  14.731  -3.641  0.00  0.00    -0.358 OA
ATOM     21  H10 UNK A          49.257  15.366  -3.906  0.00  0.00     0.217 HD
ENDBRANCH  15  20
ENDBRANCH   5  12
BRANCH   6  22
ATOM     22  O2  UNK A          46.694  10.393  -7.731  0.00  0.00    -0.355 OA
ATOM     23  H6  UNK A          46.525  10.896  -6.918  0.00  0.00     0.218 HD
ENDBRANCH   6  22
BRANCH   8  24
ATOM     24  O3  UNK A          48.688   6.044  -9.854  0.00  0.00    -0.360 OA
ATOM     25  H7  UNK A          47.806   6.041  -9.453  0.00  0.00     0.217 HD
ENDBRANCH   8  24
BRANCH  10  26
ATOM     26  O5  UNK A          52.997   5.865  -7.867  0.00  0.00    -0.361 OA
ATOM     27  H8  UNK A          52.846   4.908  -7.782  0.00  0.00     0.217 HD
ENDBRANCH  10  26
TORSDOF 6
ENDMDL
