MODEL 1
REMARK VINA RESULT:      -7.5      0.000      0.000
REMARK  6 active torsions:
REMARK  status: ('A' for Active; 'I' for Inactive)
REMARK    1  A    between atoms: O2_2  and  C5_12 
REMARK    2  A    between atoms: O3_3  and  C7_14 
REMARK    3  A    between atoms: O5_5  and  C9_16 
REMARK    4  A    between atoms: O6_6  and  C13_20 
REMARK    5  A    between atoms: O7_7  and  C15_22 
REMARK    6  A    between atoms: C3_10  and  C4_11 
ROOT
ATOM      1  O1  UNK A          39.621  15.123   0.031  0.00  0.00    -0.306 OA
ATOM      2  O4  UNK A          41.756  15.730  -3.386  0.00  0.00    -0.284 OA
ATOM      3  C1  UNK A          40.199  16.572  -1.828  0.00  0.00     0.084 A 
ATOM      4  C2  UNK A          39.496  16.302  -0.655  0.00  0.00     0.096 A 
ATOM      5  C3  UNK A          40.493  14.162  -0.456  0.00  0.00     0.123 A 
ATOM      6  C5  UNK A          41.223  14.294  -1.579  0.00  0.00     0.152 A 
ATOM      7  C6  UNK A          41.117  15.552  -2.358  0.00  0.00     0.223 A 
ATOM      8  C7  UNK A          40.031  17.793  -2.485  0.00  0.00     0.085 A 
ATOM      9  C8  UNK A          38.618  17.253  -0.133  0.00  0.00     0.075 A 
ATOM     10  C9  UNK A          38.448  18.474  -0.787  0.00  0.00     0.071 A 
ATOM     11  C11 UNK A          39.153  18.742  -1.961  0.00  0.00     0.074 A 
ENDROOT
BRANCH   5  12
ATOM     12  C4  UNK A          40.532  12.946   0.374  0.00  0.00     0.004 A 
ATOM     13  C10 UNK A          40.431  13.043   1.762  0.00  0.00     0.053 A 
ATOM     14  C13 UNK A          40.466  11.892   2.547  0.00  0.00     0.099 A 
ATOM     15  C15 UNK A          40.605  10.641   1.945  0.00  0.00     0.098 A 
ATOM     16  C14 UNK A          40.706  10.543   0.557  0.00  0.00     0.040 A 
ATOM     17  C12 UNK A          40.670  11.695  -0.228  0.00  0.00     0.017 A 
BRANCH  14  18
ATOM     18  O6  UNK A          40.368  12.000   3.901  0.00  0.00    -0.358 OA
ATOM     19  H9  UNK A          41.061  12.592   4.235  0.00  0.00     0.217 HD
ENDBRANCH  14  18
BRANCH  15  20
ATOM     20  O7  UNK A          40.639   9.508   2.702  0.00  0.00    -0.358 OA
ATOM     21  H10 UNK A          39.754   9.113   2.740  0.00  0.00     0.217 HD
ENDBRANCH  15  20
ENDBRANCH   5  12
BRANCH   6  22
ATOM     22  O2  UNK A          42.057  13.306  -2.055  0.00  0.00    -0.355 OA
ATOM     23  H6  UNK A          42.956  13.440  -1.713  0.00  0.00     0.218 HD
ENDBRANCH   6  22
BRANCH   8  24
ATOM     24  O3  UNK A          40.694  18.106  -3.634  0.00  0.00    -0.360 OA
ATOM     25  H7  UNK A          41.559  18.494  -3.433  0.00  0.00     0.217 HD
ENDBRANCH   8  24
BRANCH  10  26
ATOM     26  O5  UNK A          37.593  19.402  -0.281  0.00  0.00    -0.361 OA
ATOM     27  H8  UNK A          36.982  18.966   0.338  0.00  0.00     0.217 HD
ENDBRANCH  10  26
TORSDOF 6
ENDMDL
MODEL 2
REMARK VINA RESULT:      -7.0      2.086      3.100
REMARK  6 active torsions:
REMARK  status: ('A' for Active; 'I' for Inactive)
REMARK    1  A    between atoms: O2_2  and  C5_12 
REMARK    2  A    between atoms: O3_3  and  C7_14 
REMARK    3  A    between atoms: O5_5  and  C9_16 
REMARK    4  A    between atoms: O6_6  and  C13_20 
REMARK    5  A    between atoms: O7_7  and  C15_22 
REMARK    6  A    between atoms: C3_10  and  C4_11 
ROOT
ATOM      1  O1  UNK A          39.298  17.458  -0.157  0.00  0.00    -0.306 OA
ATOM      2  O4  UNK A          40.626  18.985  -3.695  0.00  0.00    -0.284 OA
ATOM      3  C1  UNK A          39.804  19.399  -1.524  0.00  0.00     0.084 A 
ATOM      4  C2  UNK A          39.358  18.815  -0.339  0.00  0.00     0.096 A 
ATOM      5  C3  UNK A          39.711  16.632  -1.191  0.00  0.00     0.123 A 
ATOM      6  C5  UNK A          40.154  17.068  -2.385  0.00  0.00     0.152 A 
ATOM      7  C6  UNK A          40.231  18.529  -2.630  0.00  0.00     0.223 A 
ATOM      8  C7  UNK A          39.842  20.790  -1.653  0.00  0.00     0.085 A 
ATOM      9  C8  UNK A          38.945  19.620   0.723  0.00  0.00     0.075 A 
ATOM     10  C9  UNK A          38.982  21.009   0.598  0.00  0.00     0.071 A 
ATOM     11  C11 UNK A          39.429  21.592  -0.589  0.00  0.00     0.074 A 
ENDROOT
BRANCH   5  12
ATOM     12  C4  UNK A          39.597  15.200  -0.865  0.00  0.00     0.004 A 
ATOM     13  C10 UNK A          40.645  14.544  -0.219  0.00  0.00     0.053 A 
ATOM     14  C13 UNK A          40.536  13.189   0.091  0.00  0.00     0.099 A 
ATOM     15  C15 UNK A          39.377  12.488  -0.246  0.00  0.00     0.098 A 
ATOM     16  C14 UNK A          38.329  13.144  -0.891  0.00  0.00     0.040 A 
ATOM     17  C12 UNK A          38.438  14.499  -1.201  0.00  0.00     0.017 A 
BRANCH  14  18
ATOM     18  O6  UNK A          41.566  12.559   0.719  0.00  0.00    -0.358 OA
ATOM     19  H9  UNK A          42.390  12.704   0.225  0.00  0.00     0.217 HD
ENDBRANCH  14  18
BRANCH  15  20
ATOM     20  O7  UNK A          39.258  11.165   0.053  0.00  0.00    -0.358 OA
ATOM     21  H10 UNK A          38.910  11.062   0.952  0.00  0.00     0.217 HD
ENDBRANCH  15  20
ENDBRANCH   5  12
BRANCH   6  22
ATOM     22  O2  UNK A          40.526  16.220  -3.405  0.00  0.00    -0.355 OA
ATOM     23  H6  UNK A          41.490  16.245  -3.520  0.00  0.00     0.218 HD
ENDBRANCH   6  22
BRANCH   8  24
ATOM     24  O3  UNK A          40.268  21.411  -2.788  0.00  0.00    -0.360 OA
ATOM     25  H7  UNK A          40.544  20.758  -3.450  0.00  0.00     0.217 HD
ENDBRANCH   8  24
BRANCH  10  26
ATOM     26  O5  UNK A          38.580  21.795   1.633  0.00  0.00    -0.361 OA
ATOM     27  H8  UNK A          39.033  21.506   2.444  0.00  0.00     0.217 HD
ENDBRANCH  10  26
TORSDOF 6
ENDMDL
MODEL 3
REMARK VINA RESULT:      -6.8      1.479      2.348
REMARK  6 active torsions:
REMARK  status: ('A' for Active; 'I' for Inactive)
REMARK    1  A    between atoms: O2_2  and  C5_12 
REMARK    2  A    between atoms: O3_3  and  C7_14 
REMARK    3  A    between atoms: O5_5  and  C9_16 
REMARK    4  A    between atoms: O6_6  and  C13_20 
REMARK    5  A    between atoms: O7_7  and  C15_22 
REMARK    6  A    between atoms: C3_10  and  C4_11 
ROOT
ATOM      1  O1  UNK A          39.521  15.986  -0.052  0.00  0.00    -0.306 OA
ATOM      2  O4  UNK A          40.881  17.726  -3.477  0.00  0.00    -0.284 OA
ATOM      3  C1  UNK A          39.716  17.967  -1.440  0.00  0.00     0.084 A 
ATOM      4  C2  UNK A          39.278  17.313  -0.290  0.00  0.00     0.096 A 
ATOM      5  C3  UNK A          40.246  15.267  -0.989  0.00  0.00     0.123 A 
ATOM      6  C5  UNK A          40.718  15.775  -2.142  0.00  0.00     0.152 A 
ATOM      7  C6  UNK A          40.474  17.206  -2.445  0.00  0.00     0.223 A 
ATOM      8  C7  UNK A          39.437  19.322  -1.631  0.00  0.00     0.085 A 
ATOM      9  C8  UNK A          38.554  18.013   0.677  0.00  0.00     0.075 A 
ATOM     10  C9  UNK A          38.274  19.366   0.490  0.00  0.00     0.071 A 
ATOM     11  C11 UNK A          38.714  20.019  -0.662  0.00  0.00     0.074 A 
ENDROOT
BRANCH   5  12
ATOM     12  C4  UNK A          40.436  13.856  -0.610  0.00  0.00     0.004 A 
ATOM     13  C10 UNK A          41.070  12.976  -1.488  0.00  0.00     0.053 A 
ATOM     14  C13 UNK A          41.251  11.641  -1.128  0.00  0.00     0.099 A 
ATOM     15  C15 UNK A          40.796  11.184   0.109  0.00  0.00     0.098 A 
ATOM     16  C14 UNK A          40.162  12.063   0.987  0.00  0.00     0.040 A 
ATOM     17  C12 UNK A          39.982  13.399   0.628  0.00  0.00     0.017 A 
BRANCH  14  18
ATOM     18  O6  UNK A          41.870  10.791  -1.994  0.00  0.00    -0.358 OA
ATOM     19  H9  UNK A          42.758  10.577  -1.665  0.00  0.00     0.217 HD
ENDBRANCH  14  18
BRANCH  15  20
ATOM     20  O7  UNK A          40.968   9.882   0.473  0.00  0.00    -0.358 OA
ATOM     21  H10 UNK A          41.886   9.739   0.751  0.00  0.00     0.217 HD
ENDBRANCH  15  20
ENDBRANCH   5  12
BRANCH   6  22
ATOM     22  O2  UNK A          41.408  15.025  -3.069  0.00  0.00    -0.355 OA
ATOM     23  H6  UNK A          41.371  14.085  -2.826  0.00  0.00     0.218 HD
ENDBRANCH   6  22
BRANCH   8  24
ATOM     24  O3  UNK A          39.843  20.008  -2.737  0.00  0.00    -0.360 OA
ATOM     25  H7  UNK A          40.531  20.649  -2.505  0.00  0.00     0.217 HD
ENDBRANCH   8  24
BRANCH  10  26
ATOM     26  O5  UNK A          37.569  20.050   1.431  0.00  0.00    -0.361 OA
ATOM     27  H8  UNK A          37.704  19.627   2.297  0.00  0.00     0.217 HD
ENDBRANCH  10  26
TORSDOF 6
ENDMDL
MODEL 4
REMARK VINA RESULT:      -6.8      1.129      6.439
REMARK  6 active torsions:
REMARK  status: ('A' for Active; 'I' for Inactive)
REMARK    1  A    between atoms: O2_2  and  C5_12 
REMARK    2  A    between atoms: O3_3  and  C7_14 
REMARK    3  A    between atoms: O5_5  and  C9_16 
REMARK    4  A    between atoms: O6_6  and  C13_20 
REMARK    5  A    between atoms: O7_7  and  C15_22 
REMARK    6  A    between atoms: C3_10  and  C4_11 
ROOT
ATOM      1  O1  UNK A          39.708  14.511   0.322  0.00  0.00    -0.306 OA
ATOM      2  O4  UNK A          41.945  12.764  -2.602  0.00  0.00    -0.284 OA
ATOM      3  C1  UNK A          40.821  12.536  -0.541  0.00  0.00     0.084 A 
ATOM      4  C2  UNK A          40.060  13.191   0.424  0.00  0.00     0.096 A 
ATOM      5  C3  UNK A          40.116  15.221  -0.796  0.00  0.00     0.123 A 
ATOM      6  C5  UNK A          40.860  14.709  -1.794  0.00  0.00     0.152 A 
ATOM      7  C6  UNK A          41.270  13.286  -1.724  0.00  0.00     0.223 A 
ATOM      8  C7  UNK A          41.152  11.187  -0.382  0.00  0.00     0.085 A 
ATOM      9  C8  UNK A          39.625  12.501   1.557  0.00  0.00     0.075 A 
ATOM     10  C9  UNK A          39.952  11.155   1.719  0.00  0.00     0.071 A 
ATOM     11  C11 UNK A          40.715  10.500   0.750  0.00  0.00     0.074 A 
ENDROOT
BRANCH   5  12
ATOM     12  C4  UNK A          39.671  16.625  -0.781  0.00  0.00     0.004 A 
ATOM     13  C10 UNK A          38.875  17.095   0.264  0.00  0.00     0.053 A 
ATOM     14  C13 UNK A          38.455  18.424   0.278  0.00  0.00     0.099 A 
ATOM     15  C15 UNK A          38.830  19.285  -0.754  0.00  0.00     0.098 A 
ATOM     16  C14 UNK A          39.625  18.816  -1.799  0.00  0.00     0.040 A 
ATOM     17  C12 UNK A          40.046  17.487  -1.813  0.00  0.00     0.017 A 
BRANCH  14  18
ATOM     18  O6  UNK A          37.678  18.871   1.303  0.00  0.00    -0.358 OA
ATOM     19  H9  UNK A          37.583  19.836   1.247  0.00  0.00     0.217 HD
ENDBRANCH  14  18
BRANCH  15  20
ATOM     20  O7  UNK A          38.427  20.587  -0.750  0.00  0.00    -0.358 OA
ATOM     21  H10 UNK A          39.037  21.120  -1.283  0.00  0.00     0.217 HD
ENDBRANCH  15  20
ENDBRANCH   5  12
BRANCH   6  22
ATOM     22  O2  UNK A          41.278  15.451  -2.878  0.00  0.00    -0.355 OA
ATOM     23  H6  UNK A          40.618  15.399  -3.588  0.00  0.00     0.218 HD
ENDBRANCH   6  22
BRANCH   8  24
ATOM     24  O3  UNK A          41.893  10.500  -1.296  0.00  0.00    -0.360 OA
ATOM     25  H7  UNK A          41.513  10.594  -2.183  0.00  0.00     0.217 HD
ENDBRANCH   8  24
BRANCH  10  26
ATOM     26  O5  UNK A          39.529  10.481   2.821  0.00  0.00    -0.361 OA
ATOM     27  H8  UNK A          39.102  11.107   3.431  0.00  0.00     0.217 HD
ENDBRANCH  10  26
TORSDOF 6
ENDMDL
MODEL 5
REMARK VINA RESULT:      -6.7      2.089      3.025
REMARK  6 active torsions:
REMARK  status: ('A' for Active; 'I' for Inactive)
REMARK    1  A    between atoms: O2_2  and  C5_12 
REMARK    2  A    between atoms: O3_3  and  C7_14 
REMARK    3  A    between atoms: O5_5  and  C9_16 
REMARK    4  A    between atoms: O6_6  and  C13_20 
REMARK    5  A    between atoms: O7_7  and  C15_22 
REMARK    6  A    between atoms: C3_10  and  C4_11 
ROOT
ATOM      1  O1  UNK A          39.597  17.063  -0.223  0.00  0.00    -0.306 OA
ATOM      2  O4  UNK A          40.614  18.988  -3.669  0.00  0.00    -0.284 OA
ATOM      3  C1  UNK A          39.761  19.136  -1.475  0.00  0.00     0.084 A 
ATOM      4  C2  UNK A          39.432  18.420  -0.326  0.00  0.00     0.096 A 
ATOM      5  C3  UNK A          40.127  16.377  -1.305  0.00  0.00     0.123 A 
ATOM      6  C5  UNK A          40.478  16.948  -2.472  0.00  0.00     0.152 A 
ATOM      7  C6  UNK A          40.312  18.413  -2.631  0.00  0.00     0.223 A 
ATOM      8  C7  UNK A          39.569  20.519  -1.523  0.00  0.00     0.085 A 
ATOM      9  C8  UNK A          38.906  19.083   0.783  0.00  0.00     0.075 A 
ATOM     10  C9  UNK A          38.713  20.464   0.739  0.00  0.00     0.071 A 
ATOM     11  C11 UNK A          39.044  21.180  -0.412  0.00  0.00     0.074 A 
ENDROOT
BRANCH   5  12
ATOM     12  C4  UNK A          40.252  14.929  -1.063  0.00  0.00     0.004 A 
ATOM     13  C10 UNK A          39.109  14.136  -0.960  0.00  0.00     0.053 A 
ATOM     14  C13 UNK A          39.228  12.766  -0.733  0.00  0.00     0.099 A 
ATOM     15  C15 UNK A          40.491  12.188  -0.605  0.00  0.00     0.098 A 
ATOM     16  C14 UNK A          41.635  12.980  -0.707  0.00  0.00     0.040 A 
ATOM     17  C12 UNK A          41.516  14.350  -0.936  0.00  0.00     0.017 A 
BRANCH  14  18
ATOM     18  O6  UNK A          38.105  12.003  -0.633  0.00  0.00    -0.358 OA
ATOM     19  H9  UNK A          37.375  12.537  -0.281  0.00  0.00     0.217 HD
ENDBRANCH  14  18
BRANCH  15  20
ATOM     20  O7  UNK A          40.620  10.849  -0.383  0.00  0.00    -0.358 OA
ATOM     21  H10 UNK A          39.766  10.411  -0.521  0.00  0.00     0.217 HD
ENDBRANCH  15  20
ENDBRANCH   5  12
BRANCH   6  22
ATOM     22  O2  UNK A          40.972  16.232  -3.541  0.00  0.00    -0.355 OA
ATOM     23  H6  UNK A          41.941  16.188  -3.490  0.00  0.00     0.218 HD
ENDBRANCH   6  22
BRANCH   8  24
ATOM     24  O3  UNK A          39.875  21.266  -2.621  0.00  0.00    -0.360 OA
ATOM     25  H7  UNK A          39.093  21.384  -3.180  0.00  0.00     0.217 HD
ENDBRANCH   8  24
BRANCH  10  26
ATOM     26  O5  UNK A          38.201  21.113   1.820  0.00  0.00    -0.361 OA
ATOM     27  H8  UNK A          37.825  21.962   1.530  0.00  0.00     0.217 HD
ENDBRANCH  10  26
TORSDOF 6
ENDMDL
MODEL 6
REMARK VINA RESULT:      -6.5      1.150      6.655
REMARK  6 active torsions:
REMARK  status: ('A' for Active; 'I' for Inactive)
REMARK    1  A    between atoms: O2_2  and  C5_12 
REMARK    2  A    between atoms: O3_3  and  C7_14 
REMARK    3  A    between atoms: O5_5  and  C9_16 
REMARK    4  A    between atoms: O6_6  and  C13_20 
REMARK    5  A    between atoms: O7_7  and  C15_22 
REMARK    6  A    between atoms: C3_10  and  C4_11 
ROOT
ATOM      1  O1  UNK A          39.780  14.265   0.318  0.00  0.00    -0.306 OA
ATOM      2  O4  UNK A          42.308  12.473  -2.329  0.00  0.00    -0.284 OA
ATOM      3  C1  UNK A          40.978  12.277  -0.392  0.00  0.00     0.084 A 
ATOM      4  C2  UNK A          40.120  12.947   0.478  0.00  0.00     0.096 A 
ATOM      5  C3  UNK A          40.301  14.956  -0.765  0.00  0.00     0.123 A 
ATOM      6  C5  UNK A          41.144  14.429  -1.672  0.00  0.00     0.152 A 
ATOM      7  C6  UNK A          41.545  13.008  -1.535  0.00  0.00     0.223 A 
ATOM      8  C7  UNK A          41.291  10.932  -0.176  0.00  0.00     0.085 A 
ATOM      9  C8  UNK A          39.572  12.276   1.572  0.00  0.00     0.075 A 
ATOM     10  C9  UNK A          39.882  10.934   1.790  0.00  0.00     0.071 A 
ATOM     11  C11 UNK A          40.740  10.264   0.917  0.00  0.00     0.074 A 
ENDROOT
BRANCH   5  12
ATOM     12  C4  UNK A          39.856  16.359  -0.821  0.00  0.00     0.004 A 
ATOM     13  C10 UNK A          40.210  17.163  -1.905  0.00  0.00     0.053 A 
ATOM     14  C13 UNK A          39.787  18.490  -1.958  0.00  0.00     0.099 A 
ATOM     15  C15 UNK A          39.011  19.016  -0.924  0.00  0.00     0.098 A 
ATOM     16  C14 UNK A          38.657  18.214   0.160  0.00  0.00     0.040 A 
ATOM     17  C12 UNK A          39.079  16.885   0.212  0.00  0.00     0.017 A 
BRANCH  14  18
ATOM     18  O6  UNK A          40.140  19.265  -3.021  0.00  0.00    -0.358 OA
ATOM     19  H9  UNK A          39.677  20.117  -2.974  0.00  0.00     0.217 HD
ENDBRANCH  14  18
BRANCH  15  20
ATOM     20  O7  UNK A          38.591  20.312  -0.965  0.00  0.00    -0.358 OA
ATOM     21  H10 UNK A          37.959  20.474  -0.247  0.00  0.00     0.217 HD
ENDBRANCH  15  20
ENDBRANCH   5  12
BRANCH   6  22
ATOM     22  O2  UNK A          41.671  15.153  -2.720  0.00  0.00    -0.355 OA
ATOM     23  H6  UNK A          42.417  14.670  -3.112  0.00  0.00     0.218 HD
ENDBRANCH   6  22
BRANCH   8  24
ATOM     24  O3  UNK A          42.123  10.231  -0.997  0.00  0.00    -0.360 OA
ATOM     25  H7  UNK A          42.445   9.432  -0.553  0.00  0.00     0.217 HD
ENDBRANCH   8  24
BRANCH  10  26
ATOM     26  O5  UNK A          39.347  10.277   2.855  0.00  0.00    -0.361 OA
ATOM     27  H8  UNK A          39.419  10.843   3.643  0.00  0.00     0.217 HD
ENDBRANCH  10  26
TORSDOF 6
ENDMDL
MODEL 7
REMARK VINA RESULT:      -6.3      2.711      7.348
REMARK  6 active torsions:
REMARK  status: ('A' for Active; 'I' for Inactive)
REMARK    1  A    between atoms: O2_2  and  C5_12 
REMARK    2  A    between atoms: O3_3  and  C7_14 
REMARK    3  A    between atoms: O5_5  and  C9_16 
REMARK    4  A    between atoms: O6_6  and  C13_20 
REMARK    5  A    between atoms: O7_7  and  C15_22 
REMARK    6  A    between atoms: C3_10  and  C4_11 
ROOT
ATOM      1  O1  UNK A          40.552  17.041  -1.349  0.00  0.00    -0.306 OA
ATOM      2  O4  UNK A          36.995  15.163  -0.691  0.00  0.00    -0.284 OA
ATOM      3  C1  UNK A          39.291  14.973  -1.195  0.00  0.00     0.084 A 
ATOM      4  C2  UNK A          40.476  15.674  -1.410  0.00  0.00     0.096 A 
ATOM      5  C3  UNK A          39.403  17.755  -1.046  0.00  0.00     0.123 A 
ATOM      6  C5  UNK A          38.197  17.200  -0.824  0.00  0.00     0.152 A 
ATOM      7  C6  UNK A          38.066  15.725  -0.885  0.00  0.00     0.223 A 
ATOM      8  C7  UNK A          39.274  13.578  -1.272  0.00  0.00     0.085 A 
ATOM      9  C8  UNK A          41.651  14.983  -1.708  0.00  0.00     0.075 A 
ATOM     10  C9  UNK A          41.638  13.590  -1.785  0.00  0.00     0.071 A 
ATOM     11  C11 UNK A          40.450  12.890  -1.568  0.00  0.00     0.074 A 
ENDROOT
BRANCH   5  12
ATOM     12  C4  UNK A          39.623  19.211  -1.011  0.00  0.00     0.004 A 
ATOM     13  C10 UNK A          39.231  19.951   0.105  0.00  0.00     0.053 A 
ATOM     14  C13 UNK A          39.441  21.329   0.138  0.00  0.00     0.099 A 
ATOM     15  C15 UNK A          40.041  21.969  -0.947  0.00  0.00     0.098 A 
ATOM     16  C14 UNK A          40.432  21.230  -2.063  0.00  0.00     0.040 A 
ATOM     17  C12 UNK A          40.224  19.851  -2.096  0.00  0.00     0.017 A 
BRANCH  14  18
ATOM     18  O6  UNK A          39.053  22.040   1.232  0.00  0.00    -0.358 OA
ATOM     19  H9  UNK A          39.787  22.096   1.865  0.00  0.00     0.217 HD
ENDBRANCH  14  18
BRANCH  15  20
ATOM     20  O7  UNK A          40.252  23.315  -0.926  0.00  0.00    -0.358 OA
ATOM     21  H10 UNK A          40.259  23.659  -1.833  0.00  0.00     0.217 HD
ENDBRANCH  15  20
ENDBRANCH   5  12
BRANCH   6  22
ATOM     22  O2  UNK A          37.066  17.941  -0.557  0.00  0.00    -0.355 OA
ATOM     23  H6  UNK A          37.287  18.886  -0.537  0.00  0.00     0.218 HD
ENDBRANCH   6  22
BRANCH   8  24
ATOM     24  O3  UNK A          38.143  12.845  -1.069  0.00  0.00    -0.360 OA
ATOM     25  H7  UNK A          37.427  13.409  -0.740  0.00  0.00     0.217 HD
ENDBRANCH   8  24
BRANCH  10  26
ATOM     26  O5  UNK A          42.783  12.915  -2.074  0.00  0.00    -0.361 OA
ATOM     27  H8  UNK A          43.543  13.505  -1.930  0.00  0.00     0.217 HD
ENDBRANCH  10  26
TORSDOF 6
ENDMDL
MODEL 8
REMARK VINA RESULT:      -6.3     10.136     11.899
REMARK  6 active torsions:
REMARK  status: ('A' for Active; 'I' for Inactive)
REMARK    1  A    between atoms: O2_2  and  C5_12 
REMARK    2  A    between atoms: O3_3  and  C7_14 
REMARK    3  A    between atoms: O5_5  and  C9_16 
REMARK    4  A    between atoms: O6_6  and  C13_20 
REMARK    5  A    between atoms: O7_7  and  C15_22 
REMARK    6  A    between atoms: C3_10  and  C4_11 
ROOT
ATOM      1  O1  UNK A          46.206  11.235  -7.910  0.00  0.00    -0.306 OA
ATOM      2  O4  UNK A          47.863   7.666  -8.972  0.00  0.00    -0.284 OA
ATOM      3  C1  UNK A          45.975   9.079  -9.000  0.00  0.00     0.084 A 
ATOM      4  C2  UNK A          45.467  10.316  -8.607  0.00  0.00     0.096 A 
ATOM      5  C3  UNK A          47.521  10.926  -7.595  0.00  0.00     0.123 A 
ATOM      6  C5  UNK A          48.127   9.766  -7.908  0.00  0.00     0.152 A 
ATOM      7  C6  UNK A          47.365   8.739  -8.658  0.00  0.00     0.223 A 
ATOM      8  C7  UNK A          45.173   8.181  -9.709  0.00  0.00     0.085 A 
ATOM      9  C8  UNK A          44.151  10.660  -8.918  0.00  0.00     0.075 A 
ATOM     10  C9  UNK A          43.348   9.766  -9.625  0.00  0.00     0.071 A 
ATOM     11  C11 UNK A          43.859   8.528 -10.019  0.00  0.00     0.074 A 
ENDROOT
BRANCH   5  12
ATOM     12  C4  UNK A          48.200  11.998  -6.847  0.00  0.00     0.004 A 
ATOM     13  C10 UNK A          48.088  12.061  -5.458  0.00  0.00     0.053 A 
ATOM     14  C13 UNK A          48.733  13.075  -4.751  0.00  0.00     0.099 A 
ATOM     15  C15 UNK A          49.489  14.028  -5.433  0.00  0.00     0.098 A 
ATOM     16  C14 UNK A          49.602  13.966  -6.821  0.00  0.00     0.040 A 
ATOM     17  C12 UNK A          48.958  12.951  -7.529  0.00  0.00     0.017 A 
BRANCH  14  18
ATOM     18  O6  UNK A          48.615  13.127  -3.395  0.00  0.00    -0.358 OA
ATOM     19  H9  UNK A          49.379  13.590  -3.016  0.00  0.00     0.217 HD
ENDBRANCH  14  18
BRANCH  15  20
ATOM     20  O7  UNK A          50.125  15.023  -4.752  0.00  0.00    -0.358 OA
ATOM     21  H10 UNK A          50.755  15.471  -5.339  0.00  0.00     0.217 HD
ENDBRANCH  15  20
ENDBRANCH   5  12
BRANCH   6  22
ATOM     22  O2  UNK A          49.427   9.476  -7.551  0.00  0.00    -0.355 OA
ATOM     23  H6  UNK A          49.588   9.758  -6.636  0.00  0.00     0.218 HD
ENDBRANCH   6  22
BRANCH   8  24
ATOM     24  O3  UNK A          45.621   6.960 -10.117  0.00  0.00    -0.360 OA
ATOM     25  H7  UNK A          46.145   7.044 -10.928  0.00  0.00     0.217 HD
ENDBRANCH   8  24
BRANCH  10  26
ATOM     26  O5  UNK A          42.065  10.100  -9.930  0.00  0.00    -0.361 OA
ATOM     27  H8  UNK A          41.629   9.335 -10.345  0.00  0.00     0.217 HD
ENDBRANCH  10  26
TORSDOF 6
ENDMDL
MODEL 9
REMARK VINA RESULT:      -6.2      1.321      6.625
REMARK  6 active torsions:
REMARK  status: ('A' for Active; 'I' for Inactive)
REMARK    1  A    between atoms: O2_2  and  C5_12 
REMARK    2  A    between atoms: O3_3  and  C7_14 
REMARK    3  A    between atoms: O5_5  and  C9_16 
REMARK    4  A    between atoms: O6_6  and  C13_20 
REMARK    5  A    between atoms: O7_7  and  C15_22 
REMARK    6  A    between atoms: C3_10  and  C4_11 
ROOT
ATOM      1  O1  UNK A          40.225  13.959   0.924  0.00  0.00    -0.306 OA
ATOM      2  O4  UNK A          41.604  10.462  -0.651  0.00  0.00    -0.284 OA
ATOM      3  C1  UNK A          40.790  11.620   1.236  0.00  0.00     0.084 A 
ATOM      4  C2  UNK A          40.328  12.844   1.714  0.00  0.00     0.096 A 
ATOM      5  C3  UNK A          40.584  13.860  -0.411  0.00  0.00     0.123 A 
ATOM      6  C5  UNK A          41.052  12.741  -0.993  0.00  0.00     0.152 A 
ATOM      7  C6  UNK A          41.185  11.511  -0.176  0.00  0.00     0.223 A 
ATOM      8  C7  UNK A          40.874  10.516   2.089  0.00  0.00     0.085 A 
ATOM      9  C8  UNK A          39.949  12.973   3.051  0.00  0.00     0.075 A 
ATOM     10  C9  UNK A          40.032  11.874   3.906  0.00  0.00     0.071 A 
ATOM     11  C11 UNK A          40.494  10.648   3.425  0.00  0.00     0.074 A 
ENDROOT
BRANCH   5  12
ATOM     12  C4  UNK A          40.426  15.127  -1.145  0.00  0.00     0.004 A 
ATOM     13  C10 UNK A          39.859  16.235  -0.514  0.00  0.00     0.053 A 
ATOM     14  C13 UNK A          39.710  17.434  -1.208  0.00  0.00     0.099 A 
ATOM     15  C15 UNK A          40.128  17.527  -2.537  0.00  0.00     0.098 A 
ATOM     16  C14 UNK A          40.695  16.421  -3.168  0.00  0.00     0.040 A 
ATOM     17  C12 UNK A          40.844  15.221  -2.473  0.00  0.00     0.017 A 
BRANCH  14  18
ATOM     18  O6  UNK A          39.154  18.508  -0.582  0.00  0.00    -0.358 OA
ATOM     19  H9  UNK A          39.618  19.319  -0.845  0.00  0.00     0.217 HD
ENDBRANCH  14  18
BRANCH  15  20
ATOM     20  O7  UNK A          39.989  18.694  -3.225  0.00  0.00    -0.358 OA
ATOM     21  H10 UNK A          40.488  19.398  -2.781  0.00  0.00     0.217 HD
ENDBRANCH  15  20
ENDBRANCH   5  12
BRANCH   6  22
ATOM     22  O2  UNK A          41.432  12.684  -2.317  0.00  0.00    -0.355 OA
ATOM     23  H6  UNK A          40.647  12.707  -2.887  0.00  0.00     0.218 HD
ENDBRANCH   6  22
BRANCH   8  24
ATOM     24  O3  UNK A          41.319   9.297   1.672  0.00  0.00    -0.360 OA
ATOM     25  H7  UNK A          42.167   9.084   2.089  0.00  0.00     0.217 HD
ENDBRANCH   8  24
BRANCH  10  26
ATOM     26  O5  UNK A          39.662  11.997   5.209  0.00  0.00    -0.361 OA
ATOM     27  H8  UNK A          39.549  12.941   5.418  0.00  0.00     0.217 HD
ENDBRANCH  10  26
TORSDOF 6
ENDMDL
MODEL 10
REMARK VINA RESULT:      -5.8      9.828     11.843
REMARK  6 active torsions:
REMARK  status: ('A' for Active; 'I' for Inactive)
REMARK    1  A    between atoms: O2_2  and  C5_12 
REMARK    2  A    between atoms: O3_3  and  C7_14 
REMARK    3  A    between atoms: O5_5  and  C9_16 
REMARK    4  A    between atoms: O6_6  and  C13_20 
REMARK    5  A    between atoms: O7_7  and  C15_22 
REMARK    6  A    between atoms: C3_10  and  C4_11 
ROOT
ATOM      1  O1  UNK A          45.848  11.140  -7.860  0.00  0.00    -0.306 OA
ATOM      2  O4  UNK A          47.666   7.704  -9.082  0.00  0.00    -0.284 OA
ATOM      3  C1  UNK A          45.758   9.087  -9.152  0.00  0.00     0.084 A 
ATOM      4  C2  UNK A          45.191  10.277  -8.698  0.00  0.00     0.096 A 
ATOM      5  C3  UNK A          47.136  10.821  -7.459  0.00  0.00     0.123 A 
ATOM      6  C5  UNK A          47.792   9.703  -7.818  0.00  0.00     0.152 A 
ATOM      7  C6  UNK A          47.120   8.737  -8.720  0.00  0.00     0.223 A 
ATOM      8  C7  UNK A          45.040   8.245 -10.005  0.00  0.00     0.085 A 
ATOM      9  C8  UNK A          43.900  10.630  -9.092  0.00  0.00     0.075 A 
ATOM     10  C9  UNK A          43.180   9.791  -9.944  0.00  0.00     0.071 A 
ATOM     11  C11 UNK A          43.750   8.601 -10.399  0.00  0.00     0.074 A 
ENDROOT
BRANCH   5  12
ATOM     12  C4  UNK A          47.725  11.831  -6.562  0.00  0.00     0.004 A 
ATOM     13  C10 UNK A          48.658  12.744  -7.055  0.00  0.00     0.053 A 
ATOM     14  C13 UNK A          49.215  13.701  -6.207  0.00  0.00     0.099 A 
ATOM     15  C15 UNK A          48.840  13.744  -4.864  0.00  0.00     0.098 A 
ATOM     16  C14 UNK A          47.908  12.831  -4.370  0.00  0.00     0.040 A 
ATOM     17  C12 UNK A          47.350  11.875  -5.219  0.00  0.00     0.017 A 
BRANCH  14  18
ATOM     18  O6  UNK A          50.125  14.586  -6.700  0.00  0.00    -0.358 OA
ATOM     19  H9  UNK A          49.949  15.471  -6.342  0.00  0.00     0.217 HD
ENDBRANCH  14  18
BRANCH  15  20
ATOM     20  O7  UNK A          49.376  14.674  -4.025  0.00  0.00    -0.358 OA
ATOM     21  H10 UNK A          48.983  14.585  -3.143  0.00  0.00     0.217 HD
ENDBRANCH  15  20
ENDBRANCH   5  12
BRANCH   6  22
ATOM     22  O2  UNK A          49.062   9.400  -7.375  0.00  0.00    -0.355 OA
ATOM     23  H6  UNK A          49.495  10.202  -7.040  0.00  0.00     0.218 HD
ENDBRANCH   6  22
BRANCH   8  24
ATOM     24  O3  UNK A          45.548   7.072 -10.478  0.00  0.00    -0.360 OA
ATOM     25  H7  UNK A          44.938   6.669 -11.114  0.00  0.00     0.217 HD
ENDBRANCH   8  24
BRANCH  10  26
ATOM     26  O5  UNK A          41.922  10.134 -10.330  0.00  0.00    -0.361 OA
ATOM     27  H8  UNK A          41.917  10.288 -11.290  0.00  0.00     0.217 HD
ENDBRANCH  10  26
TORSDOF 6
ENDMDL
MODEL 11
REMARK VINA RESULT:      -5.8     10.182     13.052
REMARK  6 active torsions:
REMARK  status: ('A' for Active; 'I' for Inactive)
REMARK    1  A    between atoms: O2_2  and  C5_12 
REMARK    2  A    between atoms: O3_3  and  C7_14 
REMARK    3  A    between atoms: O5_5  and  C9_16 
REMARK    4  A    between atoms: O6_6  and  C13_20 
REMARK    5  A    between atoms: O7_7  and  C15_22 
REMARK    6  A    between atoms: C3_10  and  C4_11 
ROOT
ATOM      1  O1  UNK A          48.663   9.487  -7.032  0.00  0.00    -0.306 OA
ATOM      2  O4  UNK A          45.932   9.529 -10.057  0.00  0.00    -0.284 OA
ATOM      3  C1  UNK A          47.609   8.345  -8.896  0.00  0.00     0.084 A 
ATOM      4  C2  UNK A          48.524   8.394  -7.846  0.00  0.00     0.096 A 
ATOM      5  C3  UNK A          47.848  10.586  -7.254  0.00  0.00     0.123 A 
ATOM      6  C5  UNK A          46.932  10.670  -8.237  0.00  0.00     0.152 A 
ATOM      7  C6  UNK A          46.750   9.513  -9.146  0.00  0.00     0.223 A 
ATOM      8  C7  UNK A          47.512   7.203  -9.694  0.00  0.00     0.085 A 
ATOM      9  C8  UNK A          49.351   7.300  -7.590  0.00  0.00     0.075 A 
ATOM     10  C9  UNK A          49.258   6.157  -8.385  0.00  0.00     0.071 A 
ATOM     11  C11 UNK A          48.340   6.110  -9.436  0.00  0.00     0.074 A 
ENDROOT
BRANCH   5  12
ATOM     12  C4  UNK A          48.099  11.689  -6.311  0.00  0.00     0.004 A 
ATOM     13  C10 UNK A          48.945  12.739  -6.670  0.00  0.00     0.053 A 
ATOM     14  C13 UNK A          49.181  13.783  -5.778  0.00  0.00     0.099 A 
ATOM     15  C15 UNK A          48.572  13.778  -4.522  0.00  0.00     0.098 A 
ATOM     16  C14 UNK A          47.726  12.729  -4.161  0.00  0.00     0.040 A 
ATOM     17  C12 UNK A          47.489  11.685  -5.055  0.00  0.00     0.017 A 
BRANCH  14  18
ATOM     18  O6  UNK A          50.010  14.801  -6.140  0.00  0.00    -0.358 OA
ATOM     19  H9  UNK A          50.934  14.507  -6.086  0.00  0.00     0.217 HD
ENDBRANCH  14  18
BRANCH  15  20
ATOM     20  O7  UNK A          48.794  14.794  -3.641  0.00  0.00    -0.358 OA
ATOM     21  H10 UNK A          49.449  14.517  -2.981  0.00  0.00     0.217 HD
ENDBRANCH  15  20
ENDBRANCH   5  12
BRANCH   6  22
ATOM     22  O2  UNK A          46.159  11.791  -8.452  0.00  0.00    -0.355 OA
ATOM     23  H6  UNK A          46.366  12.172  -9.321  0.00  0.00     0.218 HD
ENDBRANCH   6  22
BRANCH   8  24
ATOM     24  O3  UNK A          46.635   7.104 -10.732  0.00  0.00    -0.360 OA
ATOM     25  H7  UNK A          45.867   7.677 -10.585  0.00  0.00     0.217 HD
ENDBRANCH   8  24
BRANCH  10  26
ATOM     26  O5  UNK A          50.063   5.089  -8.137  0.00  0.00    -0.361 OA
ATOM     27  H8  UNK A          50.907   5.214  -8.604  0.00  0.00     0.217 HD
ENDBRANCH  10  26
TORSDOF 6
ENDMDL
MODEL 12
REMARK VINA RESULT:      -5.5      9.982     11.382
REMARK  6 active torsions:
REMARK  status: ('A' for Active; 'I' for Inactive)
REMARK    1  A    between atoms: O2_2  and  C5_12 
REMARK    2  A    between atoms: O3_3  and  C7_14 
REMARK    3  A    between atoms: O5_5  and  C9_16 
REMARK    4  A    between atoms: O6_6  and  C13_20 
REMARK    5  A    between atoms: O7_7  and  C15_22 
REMARK    6  A    between atoms: C3_10  and  C4_11 
ROOT
ATOM      1  O1  UNK A          46.772  11.491  -7.338  0.00  0.00    -0.306 OA
ATOM      2  O4  UNK A          48.419   8.743  -9.857  0.00  0.00    -0.284 OA
ATOM      3  C1  UNK A          46.719  10.330  -9.469  0.00  0.00     0.084 A 
ATOM      4  C2  UNK A          46.204  11.255  -8.563  0.00  0.00     0.096 A 
ATOM      5  C3  UNK A          47.916  10.788  -6.993  0.00  0.00     0.123 A 
ATOM      6  C5  UNK A          48.507   9.864  -7.772  0.00  0.00     0.152 A 
ATOM      7  C6  UNK A          47.925   9.572  -9.104  0.00  0.00     0.223 A 
ATOM      8  C7  UNK A          46.096  10.131 -10.704  0.00  0.00     0.085 A 
ATOM      9  C8  UNK A          45.059  11.985  -8.885  0.00  0.00     0.075 A 
ATOM     10  C9  UNK A          44.435  11.789 -10.117  0.00  0.00     0.071 A 
ATOM     11  C11 UNK A          44.953  10.863 -11.024  0.00  0.00     0.074 A 
ENDROOT
BRANCH   5  12
ATOM     12  C4  UNK A          48.423  11.137  -5.654  0.00  0.00     0.004 A 
ATOM     13  C10 UNK A          48.345  12.453  -5.198  0.00  0.00     0.053 A 
ATOM     14  C13 UNK A          48.823  12.782  -3.930  0.00  0.00     0.099 A 
ATOM     15  C15 UNK A          49.383  11.794  -3.118  0.00  0.00     0.098 A 
ATOM     16  C14 UNK A          49.461  10.479  -3.574  0.00  0.00     0.040 A 
ATOM     17  C12 UNK A          48.981  10.149  -4.841  0.00  0.00     0.017 A 
BRANCH  14  18
ATOM     18  O6  UNK A          48.743  14.070  -3.496  0.00  0.00    -0.358 OA
ATOM     19  H9  UNK A          48.680  14.087  -2.527  0.00  0.00     0.217 HD
ENDBRANCH  14  18
BRANCH  15  20
ATOM     20  O7  UNK A          49.852  12.103  -1.877  0.00  0.00    -0.358 OA
ATOM     21  H10 UNK A          50.595  12.723  -1.953  0.00  0.00     0.217 HD
ENDBRANCH  15  20
ENDBRANCH   5  12
BRANCH   6  22
ATOM     22  O2  UNK A          49.626   9.159  -7.385  0.00  0.00    -0.355 OA
ATOM     23  H6  UNK A          49.727   9.202  -6.420  0.00  0.00     0.218 HD
ENDBRANCH   6  22
BRANCH   8  24
ATOM     24  O3  UNK A          46.559   9.240 -11.625  0.00  0.00    -0.360 OA
ATOM     25  H7  UNK A          46.161   8.367 -11.484  0.00  0.00     0.217 HD
ENDBRANCH   8  24
BRANCH  10  26
ATOM     26  O5  UNK A          43.319  12.500 -10.434  0.00  0.00    -0.361 OA
ATOM     27  H8  UNK A          42.558  12.121  -9.962  0.00  0.00     0.217 HD
ENDBRANCH  10  26
TORSDOF 6
ENDMDL
MODEL 13
REMARK VINA RESULT:      -5.4      9.867     12.594
REMARK  6 active torsions:
REMARK  status: ('A' for Active; 'I' for Inactive)
REMARK    1  A    between atoms: O2_2  and  C5_12 
REMARK    2  A    between atoms: O3_3  and  C7_14 
REMARK    3  A    between atoms: O5_5  and  C9_16 
REMARK    4  A    between atoms: O6_6  and  C13_20 
REMARK    5  A    between atoms: O7_7  and  C15_22 
REMARK    6  A    between atoms: C3_10  and  C4_11 
ROOT
ATOM      1  O1  UNK A          47.793   9.736  -8.072  0.00  0.00    -0.306 OA
ATOM      2  O4  UNK A          44.185  10.348  -9.867  0.00  0.00    -0.284 OA
ATOM      3  C1  UNK A          46.026   8.915  -9.519  0.00  0.00     0.084 A 
ATOM      4  C2  UNK A          47.255   8.768  -8.879  0.00  0.00     0.096 A 
ATOM      5  C3  UNK A          47.077  10.907  -7.875  0.00  0.00     0.123 A 
ATOM      6  C5  UNK A          45.886  11.176  -8.440  0.00  0.00     0.152 A 
ATOM      7  C6  UNK A          45.267  10.160  -9.325  0.00  0.00     0.223 A 
ATOM      8  C7  UNK A          45.528   7.894 -10.332  0.00  0.00     0.085 A 
ATOM      9  C8  UNK A          47.994   7.597  -9.049  0.00  0.00     0.075 A 
ATOM     10  C9  UNK A          47.500   6.575  -9.860  0.00  0.00     0.071 A 
ATOM     11  C11 UNK A          46.269   6.724 -10.500  0.00  0.00     0.074 A 
ENDROOT
BRANCH   5  12
ATOM     12  C4  UNK A          47.766  11.860  -6.988  0.00  0.00     0.004 A 
ATOM     13  C10 UNK A          47.500  11.859  -5.618  0.00  0.00     0.053 A 
ATOM     14  C13 UNK A          48.154  12.760  -4.779  0.00  0.00     0.099 A 
ATOM     15  C15 UNK A          49.072  13.666  -5.310  0.00  0.00     0.098 A 
ATOM     16  C14 UNK A          49.339  13.669  -6.679  0.00  0.00     0.040 A 
ATOM     17  C12 UNK A          48.686  12.766  -7.518  0.00  0.00     0.017 A 
BRANCH  14  18
ATOM     18  O6  UNK A          47.885  12.750  -3.444  0.00  0.00    -0.358 OA
ATOM     19  H9  UNK A          48.166  11.904  -3.059  0.00  0.00     0.217 HD
ENDBRANCH  14  18
BRANCH  15  20
ATOM     20  O7  UNK A          49.718  14.551  -4.500  0.00  0.00    -0.358 OA
ATOM     21  H10 UNK A          49.495  14.370  -3.573  0.00  0.00     0.217 HD
ENDBRANCH  15  20
ENDBRANCH   5  12
BRANCH   6  22
ATOM     22  O2  UNK A          45.214  12.365  -8.250  0.00  0.00    -0.355 OA
ATOM     23  H6  UNK A          45.816  13.027  -7.874  0.00  0.00     0.218 HD
ENDBRANCH   6  22
BRANCH   8  24
ATOM     24  O3  UNK A          44.333   7.988 -10.981  0.00  0.00    -0.360 OA
ATOM     25  H7  UNK A          44.337   7.443 -11.782  0.00  0.00     0.217 HD
ENDBRANCH   8  24
BRANCH  10  26
ATOM     26  O5  UNK A          48.219   5.432 -10.027  0.00  0.00    -0.361 OA
ATOM     27  H8  UNK A          49.092   5.659 -10.392  0.00  0.00     0.217 HD
ENDBRANCH  10  26
TORSDOF 6
ENDMDL
MODEL 14
REMARK VINA RESULT:      -5.1      9.920     11.019
REMARK  6 active torsions:
REMARK  status: ('A' for Active; 'I' for Inactive)
REMARK    1  A    between atoms: O2_2  and  C5_12 
REMARK    2  A    between atoms: O3_3  and  C7_14 
REMARK    3  A    between atoms: O5_5  and  C9_16 
REMARK    4  A    between atoms: O6_6  and  C13_20 
REMARK    5  A    between atoms: O7_7  and  C15_22 
REMARK    6  A    between atoms: C3_10  and  C4_11 
ROOT
ATOM      1  O1  UNK A          46.633  11.289  -6.804  0.00  0.00    -0.306 OA
ATOM      2  O4  UNK A          48.723  12.346 -10.138  0.00  0.00    -0.284 OA
ATOM      3  C1  UNK A          46.702  11.558  -9.215  0.00  0.00     0.084 A 
ATOM      4  C2  UNK A          46.042  11.211  -8.037  0.00  0.00     0.096 A 
ATOM      5  C3  UNK A          47.939  11.746  -6.723  0.00  0.00     0.123 A 
ATOM      6  C5  UNK A          48.688  12.105  -7.782  0.00  0.00     0.152 A 
ATOM      7  C6  UNK A          48.092  12.032  -9.138  0.00  0.00     0.223 A 
ATOM      8  C7  UNK A          46.048  11.457 -10.445  0.00  0.00     0.085 A 
ATOM      9  C8  UNK A          44.723  10.756  -8.085  0.00  0.00     0.075 A 
ATOM     10  C9  UNK A          44.068  10.654  -9.312  0.00  0.00     0.071 A 
ATOM     11  C11 UNK A          44.730  11.003 -10.490  0.00  0.00     0.074 A 
ENDROOT
BRANCH   5  12
ATOM     12  C4  UNK A          48.452  11.782  -5.342  0.00  0.00     0.004 A 
ATOM     13  C10 UNK A          49.046  10.648  -4.788  0.00  0.00     0.053 A 
ATOM     14  C13 UNK A          49.533  10.682  -3.482  0.00  0.00     0.099 A 
ATOM     15  C15 UNK A          49.424  11.851  -2.728  0.00  0.00     0.098 A 
ATOM     16  C14 UNK A          48.830  12.985  -3.281  0.00  0.00     0.040 A 
ATOM     17  C12 UNK A          48.344  12.951  -4.588  0.00  0.00     0.017 A 
BRANCH  14  18
ATOM     18  O6  UNK A          50.110   9.569  -2.951  0.00  0.00    -0.358 OA
ATOM     19  H9  UNK A          50.290   9.710  -2.008  0.00  0.00     0.217 HD
ENDBRANCH  14  18
BRANCH  15  20
ATOM     20  O7  UNK A          49.897  11.897  -1.451  0.00  0.00    -0.358 OA
ATOM     21  H10 UNK A          49.292  11.422  -0.860  0.00  0.00     0.217 HD
ENDBRANCH  15  20
ENDBRANCH   5  12
BRANCH   6  22
ATOM     22  O2  UNK A          49.996  12.525  -7.671  0.00  0.00    -0.355 OA
ATOM     23  H6  UNK A          50.135  13.318  -8.215  0.00  0.00     0.218 HD
ENDBRANCH   6  22
BRANCH   8  24
ATOM     24  O3  UNK A          46.648  11.784 -11.625  0.00  0.00    -0.360 OA
ATOM     25  H7  UNK A          47.283  12.505 -11.495  0.00  0.00     0.217 HD
ENDBRANCH   8  24
BRANCH  10  26
ATOM     26  O5  UNK A          42.782  10.212  -9.360  0.00  0.00    -0.361 OA
ATOM     27  H8  UNK A          42.604   9.671  -8.571  0.00  0.00     0.217 HD
ENDBRANCH  10  26
TORSDOF 6
ENDMDL
MODEL 15
REMARK VINA RESULT:      -5.1     10.770     12.322
REMARK  6 active torsions:
REMARK  status: ('A' for Active; 'I' for Inactive)
REMARK    1  A    between atoms: O2_2  and  C5_12 
REMARK    2  A    between atoms: O3_3  and  C7_14 
REMARK    3  A    between atoms: O5_5  and  C9_16 
REMARK    4  A    between atoms: O6_6  and  C13_20 
REMARK    5  A    between atoms: O7_7  and  C15_22 
REMARK    6  A    between atoms: C3_10  and  C4_11 
ROOT
ATOM      1  O1  UNK A          45.426  10.826  -8.648  0.00  0.00    -0.306 OA
ATOM      2  O4  UNK A          47.851   7.566  -8.956  0.00  0.00    -0.284 OA
ATOM      3  C1  UNK A          47.532   9.745  -8.113  0.00  0.00     0.084 A 
ATOM      4  C2  UNK A          46.657  10.827  -8.046  0.00  0.00     0.096 A 
ATOM      5  C3  UNK A          45.029   9.693  -9.341  0.00  0.00     0.123 A 
ATOM      6  C5  UNK A          45.781   8.586  -9.488  0.00  0.00     0.152 A 
ATOM      7  C6  UNK A          47.123   8.545  -8.858  0.00  0.00     0.223 A 
ATOM      8  C7  UNK A          48.776   9.804  -7.480  0.00  0.00     0.085 A 
ATOM      9  C8  UNK A          47.023  11.978  -7.347  0.00  0.00     0.075 A 
ATOM     10  C9  UNK A          48.264  12.041  -6.714  0.00  0.00     0.071 A 
ATOM     11  C11 UNK A          49.139  10.955  -6.781  0.00  0.00     0.074 A 
ENDROOT
BRANCH   5  12
ATOM     12  C4  UNK A          43.688   9.823  -9.937  0.00  0.00     0.004 A 
ATOM     13  C10 UNK A          42.620   9.087  -9.424  0.00  0.00     0.053 A 
ATOM     14  C13 UNK A          41.351   9.211  -9.987  0.00  0.00     0.099 A 
ATOM     15  C15 UNK A          41.149  10.071 -11.067  0.00  0.00     0.098 A 
ATOM     16  C14 UNK A          42.216  10.808 -11.581  0.00  0.00     0.040 A 
ATOM     17  C12 UNK A          43.485  10.684 -11.017  0.00  0.00     0.017 A 
BRANCH  14  18
ATOM     18  O6  UNK A          40.317   8.486  -9.478  0.00  0.00    -0.358 OA
ATOM     19  H9  UNK A          40.255   7.634  -9.939  0.00  0.00     0.217 HD
ENDBRANCH  14  18
BRANCH  15  20
ATOM     20  O7  UNK A          39.913  10.202 -11.625  0.00  0.00    -0.358 OA
ATOM     21  H10 UNK A          39.933  10.892 -12.307  0.00  0.00     0.217 HD
ENDBRANCH  15  20
ENDBRANCH   5  12
BRANCH   6  22
ATOM     22  O2  UNK A          45.371   7.488 -10.212  0.00  0.00    -0.355 OA
ATOM     23  H6  UNK A          45.117   7.760 -11.109  0.00  0.00     0.218 HD
ENDBRANCH   6  22
BRANCH   8  24
ATOM     24  O3  UNK A          49.668   8.774  -7.515  0.00  0.00    -0.360 OA
ATOM     25  H7  UNK A          50.575   9.107  -7.442  0.00  0.00     0.217 HD
ENDBRANCH   8  24
BRANCH  10  26
ATOM     26  O5  UNK A          48.623  13.161  -6.031  0.00  0.00    -0.361 OA
ATOM     27  H8  UNK A          48.414  13.038  -5.089  0.00  0.00     0.217 HD
ENDBRANCH  10  26
TORSDOF 6
ENDMDL
MODEL 16
REMARK VINA RESULT:      -5.1      9.776     11.727
REMARK  6 active torsions:
REMARK  status: ('A' for Active; 'I' for Inactive)
REMARK    1  A    between atoms: O2_2  and  C5_12 
REMARK    2  A    between atoms: O3_3  and  C7_14 
REMARK    3  A    between atoms: O5_5  and  C9_16 
REMARK    4  A    between atoms: O6_6  and  C13_20 
REMARK    5  A    between atoms: O7_7  and  C15_22 
REMARK    6  A    between atoms: C3_10  and  C4_11 
ROOT
ATOM      1  O1  UNK A          46.198  10.801  -7.655  0.00  0.00    -0.306 OA
ATOM      2  O4  UNK A          49.018  12.492 -10.062  0.00  0.00    -0.284 OA
ATOM      3  C1  UNK A          48.165  12.203  -7.882  0.00  0.00     0.084 A 
ATOM      4  C2  UNK A          47.173  11.597  -7.114  0.00  0.00     0.096 A 
ATOM      5  C3  UNK A          46.208  10.578  -9.023  0.00  0.00     0.123 A 
ATOM      6  C5  UNK A          47.104  11.109  -9.875  0.00  0.00     0.152 A 
ATOM      7  C6  UNK A          48.174  11.982  -9.336  0.00  0.00     0.223 A 
ATOM      8  C7  UNK A          49.134  13.007  -7.276  0.00  0.00     0.085 A 
ATOM      9  C8  UNK A          47.142  11.794  -5.733  0.00  0.00     0.075 A 
ATOM     10  C9  UNK A          48.107  12.596  -5.124  0.00  0.00     0.071 A 
ATOM     11  C11 UNK A          49.101  13.201  -5.895  0.00  0.00     0.074 A 
ENDROOT
BRANCH   5  12
ATOM     12  C4  UNK A          45.109   9.706  -9.472  0.00  0.00     0.004 A 
ATOM     13  C10 UNK A          43.785  10.127  -9.342  0.00  0.00     0.053 A 
ATOM     14  C13 UNK A          42.745   9.302  -9.769  0.00  0.00     0.099 A 
ATOM     15  C15 UNK A          43.028   8.053 -10.324  0.00  0.00     0.098 A 
ATOM     16  C14 UNK A          44.351   7.631 -10.454  0.00  0.00     0.040 A 
ATOM     17  C12 UNK A          45.392   8.457 -10.028  0.00  0.00     0.017 A 
BRANCH  14  18
ATOM     18  O6  UNK A          41.457   9.723  -9.636  0.00  0.00    -0.358 OA
ATOM     19  H9  UNK A          40.881   8.964  -9.448  0.00  0.00     0.217 HD
ENDBRANCH  14  18
BRANCH  15  20
ATOM     20  O7  UNK A          42.021   7.238 -10.745  0.00  0.00    -0.358 OA
ATOM     21  H10 UNK A          42.339   6.669 -11.463  0.00  0.00     0.217 HD
ENDBRANCH  15  20
ENDBRANCH   5  12
BRANCH   6  22
ATOM     22  O2  UNK A          47.067  10.894 -11.236  0.00  0.00    -0.355 OA
ATOM     23  H6  UNK A          46.255  10.417 -11.473  0.00  0.00     0.218 HD
ENDBRANCH   6  22
BRANCH   8  24
ATOM     24  O3  UNK A          50.125  13.621  -7.980  0.00  0.00    -0.360 OA
ATOM     25  H7  UNK A          50.936  13.092  -7.959  0.00  0.00     0.217 HD
ENDBRANCH   8  24
BRANCH  10  26
ATOM     26  O5  UNK A          48.079  12.789  -3.778  0.00  0.00    -0.361 OA
ATOM     27  H8  UNK A          48.949  12.562  -3.407  0.00  0.00     0.217 HD
ENDBRANCH  10  26
TORSDOF 6
ENDMDL
MODEL 17
REMARK VINA RESULT:      -5.1      9.677     11.256
REMARK  6 active torsions:
REMARK  status: ('A' for Active; 'I' for Inactive)
REMARK    1  A    between atoms: O2_2  and  C5_12 
REMARK    2  A    between atoms: O3_3  and  C7_14 
REMARK    3  A    between atoms: O5_5  and  C9_16 
REMARK    4  A    between atoms: O6_6  and  C13_20 
REMARK    5  A    between atoms: O7_7  and  C15_22 
REMARK    6  A    between atoms: C3_10  and  C4_11 
ROOT
ATOM      1  O1  UNK A          47.123  12.355  -6.871  0.00  0.00    -0.306 OA
ATOM      2  O4  UNK A          49.461   9.914  -4.594  0.00  0.00    -0.284 OA
ATOM      3  C1  UNK A          48.631  12.086  -4.989  0.00  0.00     0.084 A 
ATOM      4  C2  UNK A          47.817  12.867  -5.807  0.00  0.00     0.096 A 
ATOM      5  C3  UNK A          47.227  10.998  -7.138  0.00  0.00     0.123 A 
ATOM      6  C5  UNK A          47.984  10.138  -6.432  0.00  0.00     0.152 A 
ATOM      7  C6  UNK A          48.756  10.649  -5.274  0.00  0.00     0.223 A 
ATOM      8  C7  UNK A          49.316  12.665  -3.917  0.00  0.00     0.085 A 
ATOM      9  C8  UNK A          47.684  14.234  -5.558  0.00  0.00     0.075 A 
ATOM     10  C9  UNK A          48.366  14.815  -4.489  0.00  0.00     0.071 A 
ATOM     11  C11 UNK A          49.181  14.031  -3.671  0.00  0.00     0.074 A 
ENDROOT
BRANCH   5  12
ATOM     12  C4  UNK A          46.432  10.579  -8.306  0.00  0.00     0.004 A 
ATOM     13  C10 UNK A          45.039  10.576  -8.239  0.00  0.00     0.053 A 
ATOM     14  C13 UNK A          44.288  10.180  -9.345  0.00  0.00     0.099 A 
ATOM     15  C15 UNK A          44.930   9.786 -10.519  0.00  0.00     0.098 A 
ATOM     16  C14 UNK A          46.323   9.789 -10.587  0.00  0.00     0.040 A 
ATOM     17  C12 UNK A          47.075  10.186  -9.481  0.00  0.00     0.017 A 
BRANCH  14  18
ATOM     18  O6  UNK A          42.928  10.179  -9.267  0.00  0.00    -0.358 OA
ATOM     19  H9  UNK A          42.583   9.323  -9.566  0.00  0.00     0.217 HD
ENDBRANCH  14  18
BRANCH  15  20
ATOM     20  O7  UNK A          44.207   9.399 -11.607  0.00  0.00    -0.358 OA
ATOM     21  H10 UNK A          43.274   9.633 -11.480  0.00  0.00     0.217 HD
ENDBRANCH  15  20
ENDBRANCH   5  12
BRANCH   6  22
ATOM     22  O2  UNK A          48.091   8.800  -6.743  0.00  0.00    -0.355 OA
ATOM     23  H6  UNK A          47.206   8.403  -6.804  0.00  0.00     0.218 HD
ENDBRANCH   6  22
BRANCH   8  24
ATOM     24  O3  UNK A          50.124  11.946  -3.088  0.00  0.00    -0.360 OA
ATOM     25  H7  UNK A          50.385  11.111  -3.507  0.00  0.00     0.217 HD
ENDBRANCH   8  24
BRANCH  10  26
ATOM     26  O5  UNK A          48.238  16.147  -4.244  0.00  0.00    -0.361 OA
ATOM     27  H8  UNK A          49.065  16.478  -3.854  0.00  0.00     0.217 HD
ENDBRANCH  10  26
TORSDOF 6
ENDMDL
MODEL 18
REMARK VINA RESULT:      -5.1     10.150     12.863
REMARK  6 active torsions:
REMARK  status: ('A' for Active; 'I' for Inactive)
REMARK    1  A    between atoms: O2_2  and  C5_12 
REMARK    2  A    between atoms: O3_3  and  C7_14 
REMARK    3  A    between atoms: O5_5  and  C9_16 
REMARK    4  A    between atoms: O6_6  and  C13_20 
REMARK    5  A    between atoms: O7_7  and  C15_22 
REMARK    6  A    between atoms: C3_10  and  C4_11 
ROOT
ATOM      1  O1  UNK A          46.745   9.209  -9.181  0.00  0.00    -0.306 OA
ATOM      2  O4  UNK A          42.714   9.750  -9.454  0.00  0.00    -0.284 OA
ATOM      3  C1  UNK A          44.580   8.375  -9.894  0.00  0.00     0.084 A 
ATOM      4  C2  UNK A          45.962   8.251  -9.771  0.00  0.00     0.096 A 
ATOM      5  C3  UNK A          46.132  10.345  -8.674  0.00  0.00     0.123 A 
ATOM      6  C5  UNK A          44.810  10.590  -8.736  0.00  0.00     0.152 A 
ATOM      7  C6  UNK A          43.924   9.583  -9.370  0.00  0.00     0.223 A 
ATOM      8  C7  UNK A          43.833   7.366 -10.506  0.00  0.00     0.085 A 
ATOM      9  C8  UNK A          46.607   7.116 -10.263  0.00  0.00     0.075 A 
ATOM     10  C9  UNK A          45.865   6.105 -10.874  0.00  0.00     0.071 A 
ATOM     11  C11 UNK A          44.480   6.231 -10.996  0.00  0.00     0.074 A 
ENDROOT
BRANCH   5  12
ATOM     12  C4  UNK A          47.085  11.291  -8.069  0.00  0.00     0.004 A 
ATOM     13  C10 UNK A          46.975  11.625  -6.718  0.00  0.00     0.053 A 
ATOM     14  C13 UNK A          47.878  12.520  -6.145  0.00  0.00     0.099 A 
ATOM     15  C15 UNK A          48.890  13.083  -6.923  0.00  0.00     0.098 A 
ATOM     16  C14 UNK A          49.000  12.750  -8.273  0.00  0.00     0.040 A 
ATOM     17  C12 UNK A          48.097  11.854  -8.846  0.00  0.00     0.017 A 
BRANCH  14  18
ATOM     18  O6  UNK A          47.761  12.839  -4.827  0.00  0.00    -0.358 OA
ATOM     19  H9  UNK A          47.006  12.366  -4.440  0.00  0.00     0.217 HD
ENDBRANCH  14  18
BRANCH  15  20
ATOM     20  O7  UNK A          49.779  13.958  -6.374  0.00  0.00    -0.358 OA
ATOM     21  H10 UNK A          49.902  14.715  -6.967  0.00  0.00     0.217 HD
ENDBRANCH  15  20
ENDBRANCH   5  12
BRANCH   6  22
ATOM     22  O2  UNK A          44.235  11.744  -8.251  0.00  0.00    -0.355 OA
ATOM     23  H6  UNK A          43.787  12.217  -8.971  0.00  0.00     0.218 HD
ENDBRANCH   6  22
BRANCH   8  24
ATOM     24  O3  UNK A          42.480   7.438 -10.651  0.00  0.00    -0.360 OA
ATOM     25  H7  UNK A          42.250   7.812 -11.515  0.00  0.00     0.217 HD
ENDBRANCH   8  24
BRANCH  10  26
ATOM     26  O5  UNK A          46.492   4.997 -11.354  0.00  0.00    -0.361 OA
ATOM     27  H8  UNK A          46.892   5.208 -12.215  0.00  0.00     0.217 HD
ENDBRANCH  10  26
TORSDOF 6
ENDMDL
