MODEL 1
REMARK VINA RESULT:      -6.1      0.000      0.000
REMARK  6 active torsions:
REMARK  status: ('A' for Active; 'I' for Inactive)
REMARK    1  A    between atoms: O2_2  and  C5_12 
REMARK    2  A    between atoms: O3_3  and  C7_14 
REMARK    3  A    between atoms: O5_5  and  C9_16 
REMARK    4  A    between atoms: O6_6  and  C13_20 
REMARK    5  A    between atoms: O7_7  and  C15_22 
REMARK    6  A    between atoms: C3_10  and  C4_11 
ROOT
ATOM      1  O1  UNK A          42.524  21.260  11.961  0.00  0.00    -0.306 OA
ATOM      2  O4  UNK A          45.944  19.112  11.414  0.00  0.00    -0.284 OA
ATOM      3  C1  UNK A          43.647  19.108  11.947  0.00  0.00     0.084 A 
ATOM      4  C2  UNK A          42.513  19.899  12.121  0.00  0.00     0.096 A 
ATOM      5  C3  UNK A          43.713  21.874  11.598  0.00  0.00     0.123 A 
ATOM      6  C5  UNK A          44.878  21.227  11.408  0.00  0.00     0.152 A 
ATOM      7  C6  UNK A          44.915  19.754  11.575  0.00  0.00     0.223 A 
ATOM      8  C7  UNK A          43.575  17.724  12.126  0.00  0.00     0.085 A 
ATOM      9  C8  UNK A          41.299  19.310  12.476  0.00  0.00     0.075 A 
ATOM     10  C9  UNK A          41.223  17.928  12.655  0.00  0.00     0.071 A 
ATOM     11  C11 UNK A          42.361  17.138  12.480  0.00  0.00     0.074 A 
ENDROOT
BRANCH   5  12
ATOM     12  C4  UNK A          43.587  23.335  11.459  0.00  0.00     0.004 A 
ATOM     13  C10 UNK A          43.743  23.934  10.208  0.00  0.00     0.053 A 
ATOM     14  C13 UNK A          43.622  25.317  10.077  0.00  0.00     0.099 A 
ATOM     15  C15 UNK A          43.348  26.102  11.197  0.00  0.00     0.098 A 
ATOM     16  C14 UNK A          43.192  25.504  12.447  0.00  0.00     0.040 A 
ATOM     17  C12 UNK A          43.312  24.121  12.579  0.00  0.00     0.017 A 
BRANCH  14  18
ATOM     18  O6  UNK A          43.778  25.891   8.852  0.00  0.00    -0.358 OA
ATOM     19  H9  UNK A          44.494  26.545   8.884  0.00  0.00     0.217 HD
ENDBRANCH  14  18
BRANCH  15  20
ATOM     20  O7  UNK A          43.226  27.455  11.081  0.00  0.00    -0.358 OA
ATOM     21  H10 UNK A          43.971  27.807  10.568  0.00  0.00     0.217 HD
ENDBRANCH  15  20
ENDBRANCH   5  12
BRANCH   6  22
ATOM     22  O2  UNK A          46.051  21.871  11.079  0.00  0.00    -0.355 OA
ATOM     23  H6  UNK A          46.360  22.399  11.833  0.00  0.00     0.218 HD
ENDBRANCH   6  22
BRANCH   8  24
ATOM     24  O3  UNK A          44.654  16.907  11.969  0.00  0.00    -0.360 OA
ATOM     25  H7  UNK A          44.842  16.769  11.028  0.00  0.00     0.217 HD
ENDBRANCH   8  24
BRANCH  10  26
ATOM     26  O5  UNK A          40.041  17.352  13.001  0.00  0.00    -0.361 OA
ATOM     27  H8  UNK A          39.312  17.928  12.714  0.00  0.00     0.217 HD
ENDBRANCH  10  26
TORSDOF 6
ENDMDL
MODEL 2
REMARK VINA RESULT:      -6.0      1.274      2.861
REMARK  6 active torsions:
REMARK  status: ('A' for Active; 'I' for Inactive)
REMARK    1  A    between atoms: O2_2  and  C5_12 
REMARK    2  A    between atoms: O3_3  and  C7_14 
REMARK    3  A    between atoms: O5_5  and  C9_16 
REMARK    4  A    between atoms: O6_6  and  C13_20 
REMARK    5  A    between atoms: O7_7  and  C15_22 
REMARK    6  A    between atoms: C3_10  and  C4_11 
ROOT
ATOM      1  O1  UNK A          44.347  21.279  11.771  0.00  0.00    -0.306 OA
ATOM      2  O4  UNK A          41.015  18.955  11.444  0.00  0.00    -0.284 OA
ATOM      3  C1  UNK A          43.342  19.070  11.809  0.00  0.00     0.084 A 
ATOM      4  C2  UNK A          44.443  19.919  11.909  0.00  0.00     0.096 A 
ATOM      5  C3  UNK A          43.099  21.834  11.535  0.00  0.00     0.123 A 
ATOM      6  C5  UNK A          41.961  21.127  11.410  0.00  0.00     0.152 A 
ATOM      7  C6  UNK A          42.017  19.651  11.546  0.00  0.00     0.223 A 
ATOM      8  C7  UNK A          43.500  17.690  11.957  0.00  0.00     0.085 A 
ATOM      9  C8  UNK A          45.711  19.391  12.155  0.00  0.00     0.075 A 
ATOM     10  C9  UNK A          45.873  18.013  12.304  0.00  0.00     0.071 A 
ATOM     11  C11 UNK A          44.769  17.165  12.204  0.00  0.00     0.074 A 
ENDROOT
BRANCH   5  12
ATOM     12  C4  UNK A          43.136  23.301  11.408  0.00  0.00     0.004 A 
ATOM     13  C10 UNK A          43.494  23.889  10.194  0.00  0.00     0.053 A 
ATOM     14  C13 UNK A          43.528  25.277  10.074  0.00  0.00     0.099 A 
ATOM     15  C15 UNK A          43.207  26.080  11.169  0.00  0.00     0.098 A 
ATOM     16  C14 UNK A          42.849  25.494  12.383  0.00  0.00     0.040 A 
ATOM     17  C12 UNK A          42.814  24.104  12.503  0.00  0.00     0.017 A 
BRANCH  14  18
ATOM     18  O6  UNK A          43.880  25.840   8.885  0.00  0.00    -0.358 OA
ATOM     19  H9  UNK A          43.085  26.137   8.414  0.00  0.00     0.217 HD
ENDBRANCH  14  18
BRANCH  15  20
ATOM     20  O7  UNK A          43.235  27.438  11.064  0.00  0.00    -0.358 OA
ATOM     21  H10 UNK A          43.981  27.708  10.505  0.00  0.00     0.217 HD
ENDBRANCH  15  20
ENDBRANCH   5  12
BRANCH   6  22
ATOM     22  O2  UNK A          40.739  21.707  11.143  0.00  0.00    -0.355 OA
ATOM     23  H6  UNK A          40.046  21.027  11.132  0.00  0.00     0.218 HD
ENDBRANCH   6  22
BRANCH   8  24
ATOM     24  O3  UNK A          42.458  16.817  11.869  0.00  0.00    -0.360 OA
ATOM     25  H7  UNK A          41.640  17.285  11.642  0.00  0.00     0.217 HD
ENDBRANCH   8  24
BRANCH  10  26
ATOM     26  O5  UNK A          47.108  17.497  12.544  0.00  0.00    -0.361 OA
ATOM     27  H8  UNK A          47.274  17.508  13.503  0.00  0.00     0.217 HD
ENDBRANCH  10  26
TORSDOF 6
ENDMDL
MODEL 3
REMARK VINA RESULT:      -5.9      4.966      6.359
REMARK  6 active torsions:
REMARK  status: ('A' for Active; 'I' for Inactive)
REMARK    1  A    between atoms: O2_2  and  C5_12 
REMARK    2  A    between atoms: O3_3  and  C7_14 
REMARK    3  A    between atoms: O5_5  and  C9_16 
REMARK    4  A    between atoms: O6_6  and  C13_20 
REMARK    5  A    between atoms: O7_7  and  C15_22 
REMARK    6  A    between atoms: C3_10  and  C4_11 
ROOT
ATOM      1  O1  UNK A          38.941  22.055  11.039  0.00  0.00    -0.306 OA
ATOM      2  O4  UNK A          37.804  19.569  14.062  0.00  0.00    -0.284 OA
ATOM      3  C1  UNK A          39.378  20.082  12.383  0.00  0.00     0.084 A 
ATOM      4  C2  UNK A          39.711  20.968  11.360  0.00  0.00     0.096 A 
ATOM      5  C3  UNK A          37.788  22.289  11.773  0.00  0.00     0.123 A 
ATOM      6  C5  UNK A          37.351  21.507  12.777  0.00  0.00     0.152 A 
ATOM      7  C6  UNK A          38.150  20.316  13.156  0.00  0.00     0.223 A 
ATOM      8  C7  UNK A          40.203  18.989  12.664  0.00  0.00     0.085 A 
ATOM      9  C8  UNK A          40.871  20.766  10.611  0.00  0.00     0.075 A 
ATOM     10  C9  UNK A          41.696  19.676  10.889  0.00  0.00     0.071 A 
ATOM     11  C11 UNK A          41.361  18.790  11.915  0.00  0.00     0.074 A 
ENDROOT
BRANCH   5  12
ATOM     12  C4  UNK A          37.054  23.486  11.326  0.00  0.00     0.004 A 
ATOM     13  C10 UNK A          37.360  24.735  11.867  0.00  0.00     0.053 A 
ATOM     14  C13 UNK A          36.667  25.868  11.443  0.00  0.00     0.099 A 
ATOM     15  C15 UNK A          35.666  25.753  10.478  0.00  0.00     0.098 A 
ATOM     16  C14 UNK A          35.360  24.504   9.937  0.00  0.00     0.040 A 
ATOM     17  C12 UNK A          36.054  23.371  10.360  0.00  0.00     0.017 A 
BRANCH  14  18
ATOM     18  O6  UNK A          36.973  27.082  11.979  0.00  0.00    -0.358 OA
ATOM     19  H9  UNK A          37.898  27.086  12.276  0.00  0.00     0.217 HD
ENDBRANCH  14  18
BRANCH  15  20
ATOM     20  O7  UNK A          34.983  26.853  10.055  0.00  0.00    -0.358 OA
ATOM     21  H10 UNK A          34.117  26.587   9.708  0.00  0.00     0.217 HD
ENDBRANCH  15  20
ENDBRANCH   5  12
BRANCH   6  22
ATOM     22  O2  UNK A          36.182  21.749  13.465  0.00  0.00    -0.355 OA
ATOM     23  H6  UNK A          36.076  22.703  13.611  0.00  0.00     0.218 HD
ENDBRANCH   6  22
BRANCH   8  24
ATOM     24  O3  UNK A          39.923  18.094  13.653  0.00  0.00    -0.360 OA
ATOM     25  H7  UNK A          40.001  18.512  14.523  0.00  0.00     0.217 HD
ENDBRANCH   8  24
BRANCH  10  26
ATOM     26  O5  UNK A          42.827  19.477  10.160  0.00  0.00    -0.361 OA
ATOM     27  H8  UNK A          42.703  19.858   9.274  0.00  0.00     0.217 HD
ENDBRANCH  10  26
TORSDOF 6
ENDMDL
MODEL 4
REMARK VINA RESULT:      -5.6      7.438      9.572
REMARK  6 active torsions:
REMARK  status: ('A' for Active; 'I' for Inactive)
REMARK    1  A    between atoms: O2_2  and  C5_12 
REMARK    2  A    between atoms: O3_3  and  C7_14 
REMARK    3  A    between atoms: O5_5  and  C9_16 
REMARK    4  A    between atoms: O6_6  and  C13_20 
REMARK    5  A    between atoms: O7_7  and  C15_22 
REMARK    6  A    between atoms: C3_10  and  C4_11 
ROOT
ATOM      1  O1  UNK A          36.104  24.123  10.697  0.00  0.00    -0.306 OA
ATOM      2  O4  UNK A          33.679  22.946  13.754  0.00  0.00    -0.284 OA
ATOM      3  C1  UNK A          33.968  24.291  11.838  0.00  0.00     0.084 A 
ATOM      4  C2  UNK A          34.845  24.652  10.817  0.00  0.00     0.096 A 
ATOM      5  C3  UNK A          36.516  23.179  11.624  0.00  0.00     0.123 A 
ATOM      6  C5  UNK A          35.771  22.750  12.660  0.00  0.00     0.152 A 
ATOM      7  C6  UNK A          34.404  23.298  12.833  0.00  0.00     0.223 A 
ATOM      8  C7  UNK A          32.697  24.864  11.911  0.00  0.00     0.085 A 
ATOM      9  C8  UNK A          34.456  25.593   9.863  0.00  0.00     0.075 A 
ATOM     10  C9  UNK A          33.187  26.168   9.933  0.00  0.00     0.071 A 
ATOM     11  C11 UNK A          32.309  25.804  10.956  0.00  0.00     0.074 A 
ENDROOT
BRANCH   5  12
ATOM     12  C4  UNK A          37.886  22.693  11.380  0.00  0.00     0.004 A 
ATOM     13  C10 UNK A          38.125  21.751  10.379  0.00  0.00     0.053 A 
ATOM     14  C13 UNK A          39.421  21.292  10.147  0.00  0.00     0.099 A 
ATOM     15  C15 UNK A          40.479  21.774  10.919  0.00  0.00     0.098 A 
ATOM     16  C14 UNK A          40.241  22.715  11.920  0.00  0.00     0.040 A 
ATOM     17  C12 UNK A          38.944  23.175  12.151  0.00  0.00     0.017 A 
BRANCH  14  18
ATOM     18  O6  UNK A          39.642  20.372   9.168  0.00  0.00    -0.358 OA
ATOM     19  H9  UNK A          39.446  20.762   8.301  0.00  0.00     0.217 HD
ENDBRANCH  14  18
BRANCH  15  20
ATOM     20  O7  UNK A          41.751  21.335  10.701  0.00  0.00    -0.358 OA
ATOM     21  H10 UNK A          42.246  22.000  10.198  0.00  0.00     0.217 HD
ENDBRANCH  15  20
ENDBRANCH   5  12
BRANCH   6  22
ATOM     22  O2  UNK A          36.223  21.833  13.583  0.00  0.00    -0.355 OA
ATOM     23  H6  UNK A          35.535  21.667  14.248  0.00  0.00     0.218 HD
ENDBRANCH   6  22
BRANCH   8  24
ATOM     24  O3  UNK A          31.802  24.546  12.888  0.00  0.00    -0.360 OA
ATOM     25  H7  UNK A          31.127  25.236  12.970  0.00  0.00     0.217 HD
ENDBRANCH   8  24
BRANCH  10  26
ATOM     26  O5  UNK A          32.805  27.085   9.004  0.00  0.00    -0.361 OA
ATOM     27  H8  UNK A          32.515  27.895   9.458  0.00  0.00     0.217 HD
ENDBRANCH  10  26
TORSDOF 6
ENDMDL
MODEL 5
REMARK VINA RESULT:      -5.6      2.942      5.158
REMARK  6 active torsions:
REMARK  status: ('A' for Active; 'I' for Inactive)
REMARK    1  A    between atoms: O2_2  and  C5_12 
REMARK    2  A    between atoms: O3_3  and  C7_14 
REMARK    3  A    between atoms: O5_5  and  C9_16 
REMARK    4  A    between atoms: O6_6  and  C13_20 
REMARK    5  A    between atoms: O7_7  and  C15_22 
REMARK    6  A    between atoms: C3_10  and  C4_11 
ROOT
ATOM      1  O1  UNK A          42.490  21.372  10.782  0.00  0.00    -0.306 OA
ATOM      2  O4  UNK A          43.117  17.556  12.067  0.00  0.00    -0.284 OA
ATOM      3  C1  UNK A          44.037  19.554  11.218  0.00  0.00     0.084 A 
ATOM      4  C2  UNK A          43.757  20.850  10.790  0.00  0.00     0.096 A 
ATOM      5  C3  UNK A          41.445  20.580  11.231  0.00  0.00     0.123 A 
ATOM      6  C5  UNK A          41.579  19.312  11.662  0.00  0.00     0.152 A 
ATOM      7  C6  UNK A          42.932  18.704  11.684  0.00  0.00     0.223 A 
ATOM      8  C7  UNK A          45.350  19.076  11.203  0.00  0.00     0.085 A 
ATOM      9  C8  UNK A          44.789  21.676  10.341  0.00  0.00     0.075 A 
ATOM     10  C9  UNK A          46.100  21.201  10.325  0.00  0.00     0.071 A 
ATOM     11  C11 UNK A          46.379  19.903  10.755  0.00  0.00     0.074 A 
ENDROOT
BRANCH   5  12
ATOM     12  C4  UNK A          40.139  21.260  11.170  0.00  0.00     0.004 A 
ATOM     13  C10 UNK A          39.735  22.092  12.215  0.00  0.00     0.053 A 
ATOM     14  C13 UNK A          38.501  22.737  12.156  0.00  0.00     0.099 A 
ATOM     15  C15 UNK A          37.667  22.548  11.053  0.00  0.00     0.098 A 
ATOM     16  C14 UNK A          38.070  21.716  10.008  0.00  0.00     0.040 A 
ATOM     17  C12 UNK A          39.306  21.072  10.067  0.00  0.00     0.017 A 
BRANCH  14  18
ATOM     18  O6  UNK A          38.116  23.546  13.182  0.00  0.00    -0.358 OA
ATOM     19  H9  UNK A          37.467  24.194  12.863  0.00  0.00     0.217 HD
ENDBRANCH  14  18
BRANCH  15  20
ATOM     20  O7  UNK A          36.459  23.174  10.983  0.00  0.00    -0.358 OA
ATOM     21  H10 UNK A          35.755  22.555  11.233  0.00  0.00     0.217 HD
ENDBRANCH  15  20
ENDBRANCH   5  12
BRANCH   6  22
ATOM     22  O2  UNK A          40.515  18.539  12.072  0.00  0.00    -0.355 OA
ATOM     23  H6  UNK A          40.430  18.580  13.039  0.00  0.00     0.218 HD
ENDBRANCH   6  22
BRANCH   8  24
ATOM     24  O3  UNK A          45.678  17.817  11.611  0.00  0.00    -0.360 OA
ATOM     25  H7  UNK A          46.266  17.394  10.968  0.00  0.00     0.217 HD
ENDBRANCH   8  24
BRANCH  10  26
ATOM     26  O5  UNK A          47.108  22.004   9.888  0.00  0.00    -0.361 OA
ATOM     27  H8  UNK A          47.700  21.486   9.317  0.00  0.00     0.217 HD
ENDBRANCH  10  26
TORSDOF 6
ENDMDL
MODEL 6
REMARK VINA RESULT:      -5.5      4.576      6.044
REMARK  6 active torsions:
REMARK  status: ('A' for Active; 'I' for Inactive)
REMARK    1  A    between atoms: O2_2  and  C5_12 
REMARK    2  A    between atoms: O3_3  and  C7_14 
REMARK    3  A    between atoms: O5_5  and  C9_16 
REMARK    4  A    between atoms: O6_6  and  C13_20 
REMARK    5  A    between atoms: O7_7  and  C15_22 
REMARK    6  A    between atoms: C3_10  and  C4_11 
ROOT
ATOM      1  O1  UNK A          40.231  22.841  11.384  0.00  0.00    -0.306 OA
ATOM      2  O4  UNK A          40.619  18.814  11.877  0.00  0.00    -0.284 OA
ATOM      3  C1  UNK A          41.653  20.874  11.376  0.00  0.00     0.084 A 
ATOM      4  C2  UNK A          41.454  22.245  11.220  0.00  0.00     0.096 A 
ATOM      5  C3  UNK A          39.149  22.048  11.732  0.00  0.00     0.123 A 
ATOM      6  C5  UNK A          39.205  20.714  11.904  0.00  0.00     0.152 A 
ATOM      7  C6  UNK A          40.506  20.025  11.732  0.00  0.00     0.223 A 
ATOM      8  C7  UNK A          42.923  20.321  11.195  0.00  0.00     0.085 A 
ATOM      9  C8  UNK A          42.525  23.071  10.880  0.00  0.00     0.075 A 
ATOM     10  C9  UNK A          43.795  22.523  10.699  0.00  0.00     0.071 A 
ATOM     11  C11 UNK A          43.992  21.150  10.856  0.00  0.00     0.074 A 
ENDROOT
BRANCH   5  12
ATOM     12  C4  UNK A          37.897  22.813  11.876  0.00  0.00     0.004 A 
ATOM     13  C10 UNK A          37.038  22.959  10.787  0.00  0.00     0.053 A 
ATOM     14  C13 UNK A          35.854  23.682  10.924  0.00  0.00     0.099 A 
ATOM     15  C15 UNK A          35.528  24.261  12.151  0.00  0.00     0.098 A 
ATOM     16  C14 UNK A          36.387  24.115  13.241  0.00  0.00     0.040 A 
ATOM     17  C12 UNK A          37.571  23.391  13.103  0.00  0.00     0.017 A 
BRANCH  14  18
ATOM     18  O6  UNK A          35.024  23.819   9.853  0.00  0.00    -0.358 OA
ATOM     19  H9  UNK A          34.320  23.152   9.896  0.00  0.00     0.217 HD
ENDBRANCH  14  18
BRANCH  15  20
ATOM     20  O7  UNK A          34.373  24.968  12.298  0.00  0.00    -0.358 OA
ATOM     21  H10 UNK A          33.612  24.388  12.139  0.00  0.00     0.217 HD
ENDBRANCH  15  20
ENDBRANCH   5  12
BRANCH   6  22
ATOM     22  O2  UNK A          38.102  19.949  12.218  0.00  0.00    -0.355 OA
ATOM     23  H6  UNK A          38.203  19.058  11.847  0.00  0.00     0.218 HD
ENDBRANCH   6  22
BRANCH   8  24
ATOM     24  O3  UNK A          43.171  18.989  11.336  0.00  0.00    -0.360 OA
ATOM     25  H7  UNK A          43.325  18.768  12.266  0.00  0.00     0.217 HD
ENDBRANCH   8  24
BRANCH  10  26
ATOM     26  O5  UNK A          44.841  23.326  10.368  0.00  0.00    -0.361 OA
ATOM     27  H8  UNK A          45.273  22.972   9.571  0.00  0.00     0.217 HD
ENDBRANCH  10  26
TORSDOF 6
ENDMDL
MODEL 7
REMARK VINA RESULT:      -5.5      2.767      5.628
REMARK  6 active torsions:
REMARK  status: ('A' for Active; 'I' for Inactive)
REMARK    1  A    between atoms: O2_2  and  C5_12 
REMARK    2  A    between atoms: O3_3  and  C7_14 
REMARK    3  A    between atoms: O5_5  and  C9_16 
REMARK    4  A    between atoms: O6_6  and  C13_20 
REMARK    5  A    between atoms: O7_7  and  C15_22 
REMARK    6  A    between atoms: C3_10  and  C4_11 
ROOT
ATOM      1  O1  UNK A          43.665  20.266  10.544  0.00  0.00    -0.306 OA
ATOM      2  O4  UNK A          43.718  24.232  11.481  0.00  0.00    -0.284 OA
ATOM      3  C1  UNK A          42.454  22.259  11.216  0.00  0.00     0.084 A 
ATOM      4  C2  UNK A          42.502  20.906  10.884  0.00  0.00     0.096 A 
ATOM      5  C3  UNK A          44.845  20.993  10.543  0.00  0.00     0.123 A 
ATOM      6  C5  UNK A          44.934  22.304  10.835  0.00  0.00     0.152 A 
ATOM      7  C6  UNK A          43.700  23.039  11.204  0.00  0.00     0.223 A 
ATOM      8  C7  UNK A          41.238  22.859  11.554  0.00  0.00     0.085 A 
ATOM      9  C8  UNK A          41.333  20.145  10.886  0.00  0.00     0.075 A 
ATOM     10  C9  UNK A          40.117  20.741  11.223  0.00  0.00     0.071 A 
ATOM     11  C11 UNK A          40.071  22.095  11.556  0.00  0.00     0.074 A 
ENDROOT
BRANCH   5  12
ATOM     12  C4  UNK A          46.017  20.187  10.160  0.00  0.00     0.004 A 
ATOM     13  C10 UNK A          46.711  20.475   8.985  0.00  0.00     0.053 A 
ATOM     14  C13 UNK A          47.821  19.713   8.624  0.00  0.00     0.099 A 
ATOM     15  C15 UNK A          48.238  18.659   9.438  0.00  0.00     0.098 A 
ATOM     16  C14 UNK A          47.545  18.370  10.614  0.00  0.00     0.040 A 
ATOM     17  C12 UNK A          46.435  19.133  10.975  0.00  0.00     0.017 A 
BRANCH  14  18
ATOM     18  O6  UNK A          48.489  20.003   7.473  0.00  0.00    -0.358 OA
ATOM     19  H9  UNK A          49.155  19.318   7.299  0.00  0.00     0.217 HD
ENDBRANCH  14  18
BRANCH  15  20
ATOM     20  O7  UNK A          49.322  17.907   9.097  0.00  0.00    -0.358 OA
ATOM     21  H10 UNK A          49.044  16.997   8.910  0.00  0.00     0.217 HD
ENDBRANCH  15  20
ENDBRANCH   5  12
BRANCH   6  22
ATOM     22  O2  UNK A          46.119  23.006  10.793  0.00  0.00    -0.355 OA
ATOM     23  H6  UNK A          46.864  22.405  10.957  0.00  0.00     0.218 HD
ENDBRANCH   6  22
BRANCH   8  24
ATOM     24  O3  UNK A          41.136  24.177  11.886  0.00  0.00    -0.360 OA
ATOM     25  H7  UNK A          41.222  24.734  11.097  0.00  0.00     0.217 HD
ENDBRANCH   8  24
BRANCH  10  26
ATOM     26  O5  UNK A          38.976  20.000  11.226  0.00  0.00    -0.361 OA
ATOM     27  H8  UNK A          38.212  20.597  11.307  0.00  0.00     0.217 HD
ENDBRANCH  10  26
TORSDOF 6
ENDMDL
MODEL 8
REMARK VINA RESULT:      -5.5      2.522      5.971
REMARK  6 active torsions:
REMARK  status: ('A' for Active; 'I' for Inactive)
REMARK    1  A    between atoms: O2_2  and  C5_12 
REMARK    2  A    between atoms: O3_3  and  C7_14 
REMARK    3  A    between atoms: O5_5  and  C9_16 
REMARK    4  A    between atoms: O6_6  and  C13_20 
REMARK    5  A    between atoms: O7_7  and  C15_22 
REMARK    6  A    between atoms: C3_10  and  C4_11 
ROOT
ATOM      1  O1  UNK A          43.631  22.098  11.299  0.00  0.00    -0.306 OA
ATOM      2  O4  UNK A          40.087  20.114  10.962  0.00  0.00    -0.284 OA
ATOM      3  C1  UNK A          41.216  22.105  11.531  0.00  0.00     0.084 A 
ATOM      4  C2  UNK A          42.459  22.727  11.625  0.00  0.00     0.096 A 
ATOM      5  C3  UNK A          43.576  20.790  10.842  0.00  0.00     0.123 A 
ATOM      6  C5  UNK A          42.443  20.075  10.713  0.00  0.00     0.152 A 
ATOM      7  C6  UNK A          41.150  20.713  11.060  0.00  0.00     0.223 A 
ATOM      8  C7  UNK A          40.053  22.797  11.879  0.00  0.00     0.085 A 
ATOM      9  C8  UNK A          42.547  24.047  12.072  0.00  0.00     0.075 A 
ATOM     10  C9  UNK A          41.389  24.741  12.420  0.00  0.00     0.071 A 
ATOM     11  C11 UNK A          40.144  24.116  12.324  0.00  0.00     0.074 A 
ENDROOT
BRANCH   5  12
ATOM     12  C4  UNK A          44.903  20.233  10.527  0.00  0.00     0.004 A 
ATOM     13  C10 UNK A          45.613  20.703   9.421  0.00  0.00     0.053 A 
ATOM     14  C13 UNK A          46.869  20.177   9.124  0.00  0.00     0.099 A 
ATOM     15  C15 UNK A          47.416  19.179   9.931  0.00  0.00     0.098 A 
ATOM     16  C14 UNK A          46.707  18.709  11.036  0.00  0.00     0.040 A 
ATOM     17  C12 UNK A          45.451  19.236  11.334  0.00  0.00     0.017 A 
BRANCH  14  18
ATOM     18  O6  UNK A          47.553  20.643   8.042  0.00  0.00    -0.358 OA
ATOM     19  H9  UNK A          47.570  21.613   8.057  0.00  0.00     0.217 HD
ENDBRANCH  14  18
BRANCH  15  20
ATOM     20  O7  UNK A          48.644  18.658   9.651  0.00  0.00    -0.358 OA
ATOM     21  H10 UNK A          49.279  18.933  10.331  0.00  0.00     0.217 HD
ENDBRANCH  15  20
ENDBRANCH   5  12
BRANCH   6  22
ATOM     22  O2  UNK A          42.424  18.764  10.288  0.00  0.00    -0.355 OA
ATOM     23  H6  UNK A          41.606  18.588   9.796  0.00  0.00     0.218 HD
ENDBRANCH   6  22
BRANCH   8  24
ATOM     24  O3  UNK A          38.814  22.235  11.805  0.00  0.00    -0.360 OA
ATOM     25  H7  UNK A          38.645  21.679  12.581  0.00  0.00     0.217 HD
ENDBRANCH   8  24
BRANCH  10  26
ATOM     26  O5  UNK A          41.472  26.027  12.855  0.00  0.00    -0.361 OA
ATOM     27  H8  UNK A          40.707  26.525  12.519  0.00  0.00     0.217 HD
ENDBRANCH  10  26
TORSDOF 6
ENDMDL
MODEL 9
REMARK VINA RESULT:      -5.5      2.799      5.916
REMARK  6 active torsions:
REMARK  status: ('A' for Active; 'I' for Inactive)
REMARK    1  A    between atoms: O2_2  and  C5_12 
REMARK    2  A    between atoms: O3_3  and  C7_14 
REMARK    3  A    between atoms: O5_5  and  C9_16 
REMARK    4  A    between atoms: O6_6  and  C13_20 
REMARK    5  A    between atoms: O7_7  and  C15_22 
REMARK    6  A    between atoms: C3_10  and  C4_11 
ROOT
ATOM      1  O1  UNK A          44.157  20.905  10.173  0.00  0.00    -0.306 OA
ATOM      2  O4  UNK A          46.019  23.529  12.673  0.00  0.00    -0.284 OA
ATOM      3  C1  UNK A          46.185  22.061  10.836  0.00  0.00     0.084 A 
ATOM      4  C2  UNK A          45.491  21.173  10.016  0.00  0.00     0.096 A 
ATOM      5  C3  UNK A          43.465  21.555  11.183  0.00  0.00     0.123 A 
ATOM      6  C5  UNK A          44.018  22.426  12.047  0.00  0.00     0.152 A 
ATOM      7  C6  UNK A          45.461  22.744  11.919  0.00  0.00     0.223 A 
ATOM      8  C7  UNK A          47.547  22.294  10.629  0.00  0.00     0.085 A 
ATOM      9  C8  UNK A          46.157  20.511   8.983  0.00  0.00     0.075 A 
ATOM     10  C9  UNK A          47.517  20.742   8.774  0.00  0.00     0.071 A 
ATOM     11  C11 UNK A          48.210  21.632   9.596  0.00  0.00     0.074 A 
ENDROOT
BRANCH   5  12
ATOM     12  C4  UNK A          42.042  21.177  11.242  0.00  0.00     0.004 A 
ATOM     13  C10 UNK A          41.652  20.026  11.927  0.00  0.00     0.053 A 
ATOM     14  C13 UNK A          40.305  19.670  11.984  0.00  0.00     0.099 A 
ATOM     15  C15 UNK A          39.347  20.464  11.352  0.00  0.00     0.098 A 
ATOM     16  C14 UNK A          39.736  21.615  10.667  0.00  0.00     0.040 A 
ATOM     17  C12 UNK A          41.084  21.972  10.611  0.00  0.00     0.017 A 
BRANCH  14  18
ATOM     18  O6  UNK A          39.937  18.544  12.654  0.00  0.00    -0.358 OA
ATOM     19  H9  UNK A          39.532  18.785  13.503  0.00  0.00     0.217 HD
ENDBRANCH  14  18
BRANCH  15  20
ATOM     20  O7  UNK A          38.028  20.127  11.402  0.00  0.00    -0.358 OA
ATOM     21  H10 UNK A          37.530  20.819  11.864  0.00  0.00     0.217 HD
ENDBRANCH  15  20
ENDBRANCH   5  12
BRANCH   6  22
ATOM     22  O2  UNK A          43.309  23.031  13.063  0.00  0.00    -0.355 OA
ATOM     23  H6  UNK A          42.809  22.364  13.559  0.00  0.00     0.218 HD
ENDBRANCH   6  22
BRANCH   8  24
ATOM     24  O3  UNK A          48.271  23.151  11.402  0.00  0.00    -0.360 OA
ATOM     25  H7  UNK A          48.869  23.681  10.854  0.00  0.00     0.217 HD
ENDBRANCH   8  24
BRANCH  10  26
ATOM     26  O5  UNK A          48.168  20.098   7.768  0.00  0.00    -0.361 OA
ATOM     27  H8  UNK A          49.102  19.986   8.016  0.00  0.00     0.217 HD
ENDBRANCH  10  26
TORSDOF 6
ENDMDL
MODEL 10
REMARK VINA RESULT:      -5.5      2.054      6.859
REMARK  6 active torsions:
REMARK  status: ('A' for Active; 'I' for Inactive)
REMARK    1  A    between atoms: O2_2  and  C5_12 
REMARK    2  A    between atoms: O3_3  and  C7_14 
REMARK    3  A    between atoms: O5_5  and  C9_16 
REMARK    4  A    between atoms: O6_6  and  C13_20 
REMARK    5  A    between atoms: O7_7  and  C15_22 
REMARK    6  A    between atoms: C3_10  and  C4_11 
ROOT
ATOM      1  O1  UNK A          41.538  22.970  12.270  0.00  0.00    -0.306 OA
ATOM      2  O4  UNK A          44.660  25.275  11.023  0.00  0.00    -0.284 OA
ATOM      3  C1  UNK A          42.469  25.179  11.890  0.00  0.00     0.084 A 
ATOM      4  C2  UNK A          41.438  24.337  12.301  0.00  0.00     0.096 A 
ATOM      5  C3  UNK A          42.722  22.403  11.822  0.00  0.00     0.123 A 
ATOM      6  C5  UNK A          43.787  23.103  11.391  0.00  0.00     0.152 A 
ATOM      7  C6  UNK A          43.723  24.585  11.402  0.00  0.00     0.223 A 
ATOM      8  C7  UNK A          42.309  26.566  11.943  0.00  0.00     0.085 A 
ATOM      9  C8  UNK A          40.238  24.877  12.766  0.00  0.00     0.075 A 
ATOM     10  C9  UNK A          40.075  26.261  12.820  0.00  0.00     0.071 A 
ATOM     11  C11 UNK A          41.110  27.104  12.409  0.00  0.00     0.074 A 
ENDROOT
BRANCH   5  12
ATOM     12  C4  UNK A          42.697  20.930  11.840  0.00  0.00     0.004 A 
ATOM     13  C10 UNK A          43.187  20.237  12.947  0.00  0.00     0.053 A 
ATOM     14  C13 UNK A          43.162  18.843  12.964  0.00  0.00     0.099 A 
ATOM     15  C15 UNK A          42.648  18.141  11.873  0.00  0.00     0.098 A 
ATOM     16  C14 UNK A          42.159  18.834  10.766  0.00  0.00     0.040 A 
ATOM     17  C12 UNK A          42.183  20.229  10.749  0.00  0.00     0.017 A 
BRANCH  14  18
ATOM     18  O6  UNK A          43.644  18.176  14.049  0.00  0.00    -0.358 OA
ATOM     19  H9  UNK A          43.037  18.286  14.799  0.00  0.00     0.217 HD
ENDBRANCH  14  18
BRANCH  15  20
ATOM     20  O7  UNK A          42.618  16.779  11.878  0.00  0.00    -0.358 OA
ATOM     21  H10 UNK A          43.471  16.433  12.184  0.00  0.00     0.217 HD
ENDBRANCH  15  20
ENDBRANCH   5  12
BRANCH   6  22
ATOM     22  O2  UNK A          44.938  22.509  10.921  0.00  0.00    -0.355 OA
ATOM     23  H6  UNK A          45.639  23.174  10.827  0.00  0.00     0.218 HD
ENDBRANCH   6  22
BRANCH   8  24
ATOM     24  O3  UNK A          43.285  27.434  11.554  0.00  0.00    -0.360 OA
ATOM     25  H7  UNK A          43.700  27.132  10.732  0.00  0.00     0.217 HD
ENDBRANCH   8  24
BRANCH  10  26
ATOM     26  O5  UNK A          38.907  26.790  13.273  0.00  0.00    -0.361 OA
ATOM     27  H8  UNK A          38.172  26.431  12.748  0.00  0.00     0.217 HD
ENDBRANCH  10  26
TORSDOF 6
ENDMDL
MODEL 11
REMARK VINA RESULT:      -5.4      0.616      1.453
REMARK  6 active torsions:
REMARK  status: ('A' for Active; 'I' for Inactive)
REMARK    1  A    between atoms: O2_2  and  C5_12 
REMARK    2  A    between atoms: O3_3  and  C7_14 
REMARK    3  A    between atoms: O5_5  and  C9_16 
REMARK    4  A    between atoms: O6_6  and  C13_20 
REMARK    5  A    between atoms: O7_7  and  C15_22 
REMARK    6  A    between atoms: C3_10  and  C4_11 
ROOT
ATOM      1  O1  UNK A          42.580  21.249  11.979  0.00  0.00    -0.306 OA
ATOM      2  O4  UNK A          46.026  19.133  11.471  0.00  0.00    -0.284 OA
ATOM      3  C1  UNK A          43.721  19.107  11.968  0.00  0.00     0.084 A 
ATOM      4  C2  UNK A          42.577  19.887  12.129  0.00  0.00     0.096 A 
ATOM      5  C3  UNK A          43.770  21.876  11.639  0.00  0.00     0.123 A 
ATOM      6  C5  UNK A          44.943  21.240  11.463  0.00  0.00     0.152 A 
ATOM      7  C6  UNK A          44.989  19.766  11.620  0.00  0.00     0.223 A 
ATOM      8  C7  UNK A          43.658  17.722  12.135  0.00  0.00     0.085 A 
ATOM      9  C8  UNK A          41.363  19.285  12.461  0.00  0.00     0.075 A 
ATOM     10  C9  UNK A          41.297  17.902  12.629  0.00  0.00     0.071 A 
ATOM     11  C11 UNK A          42.443  17.122  12.466  0.00  0.00     0.074 A 
ENDROOT
BRANCH   5  12
ATOM     12  C4  UNK A          43.634  23.337  11.508  0.00  0.00     0.004 A 
ATOM     13  C10 UNK A          43.608  24.141  12.648  0.00  0.00     0.053 A 
ATOM     14  C13 UNK A          43.481  25.524  12.524  0.00  0.00     0.099 A 
ATOM     15  C15 UNK A          43.377  26.104  11.260  0.00  0.00     0.098 A 
ATOM     16  C14 UNK A          43.403  25.301  10.120  0.00  0.00     0.040 A 
ATOM     17  C12 UNK A          43.531  23.917  10.244  0.00  0.00     0.017 A 
BRANCH  14  18
ATOM     18  O6  UNK A          43.456  26.298  13.644  0.00  0.00    -0.358 OA
ATOM     19  H9  UNK A          43.959  25.866  14.354  0.00  0.00     0.217 HD
ENDBRANCH  14  18
BRANCH  15  20
ATOM     20  O7  UNK A          43.254  27.454  11.126  0.00  0.00    -0.358 OA
ATOM     21  H10 UNK A          42.316  27.701  11.142  0.00  0.00     0.217 HD
ENDBRANCH  15  20
ENDBRANCH   5  12
BRANCH   6  22
ATOM     22  O2  UNK A          46.116  21.896  11.157  0.00  0.00    -0.355 OA
ATOM     23  H6  UNK A          46.003  22.411  10.341  0.00  0.00     0.218 HD
ENDBRANCH   6  22
BRANCH   8  24
ATOM     24  O3  UNK A          44.746  16.914  11.989  0.00  0.00    -0.360 OA
ATOM     25  H7  UNK A          44.746  16.498  11.113  0.00  0.00     0.217 HD
ENDBRANCH   8  24
BRANCH  10  26
ATOM     26  O5  UNK A          40.114  17.313  12.952  0.00  0.00    -0.361 OA
ATOM     27  H8  UNK A          39.881  16.670  12.260  0.00  0.00     0.217 HD
ENDBRANCH  10  26
TORSDOF 6
ENDMDL
MODEL 12
REMARK VINA RESULT:      -5.4      2.502      6.421
REMARK  6 active torsions:
REMARK  status: ('A' for Active; 'I' for Inactive)
REMARK    1  A    between atoms: O2_2  and  C5_12 
REMARK    2  A    between atoms: O3_3  and  C7_14 
REMARK    3  A    between atoms: O5_5  and  C9_16 
REMARK    4  A    between atoms: O6_6  and  C13_20 
REMARK    5  A    between atoms: O7_7  and  C15_22 
REMARK    6  A    between atoms: C3_10  and  C4_11 
ROOT
ATOM      1  O1  UNK A          44.864  23.037  10.720  0.00  0.00    -0.306 OA
ATOM      2  O4  UNK A          41.209  21.422  11.523  0.00  0.00    -0.284 OA
ATOM      3  C1  UNK A          42.567  23.348  11.439  0.00  0.00     0.084 A 
ATOM      4  C2  UNK A          43.839  23.838  11.149  0.00  0.00     0.096 A 
ATOM      5  C3  UNK A          44.620  21.682  10.554  0.00  0.00     0.123 A 
ATOM      6  C5  UNK A          43.442  21.083  10.807  0.00  0.00     0.152 A 
ATOM      7  C6  UNK A          42.305  21.910  11.278  0.00  0.00     0.223 A 
ATOM      8  C7  UNK A          41.561  24.214  11.875  0.00  0.00     0.085 A 
ATOM      9  C8  UNK A          44.113  25.199  11.296  0.00  0.00     0.075 A 
ATOM     10  C9  UNK A          43.110  26.066  11.731  0.00  0.00     0.071 A 
ATOM     11  C11 UNK A          41.837  25.573  12.020  0.00  0.00     0.074 A 
ENDROOT
BRANCH   5  12
ATOM     12  C4  UNK A          45.803  20.937  10.089  0.00  0.00     0.004 A 
ATOM     13  C10 UNK A          46.479  21.346   8.939  0.00  0.00     0.053 A 
ATOM     14  C13 UNK A          47.599  20.642   8.500  0.00  0.00     0.099 A 
ATOM     15  C15 UNK A          48.043  19.526   9.210  0.00  0.00     0.098 A 
ATOM     16  C14 UNK A          47.368  19.116  10.359  0.00  0.00     0.040 A 
ATOM     17  C12 UNK A          46.248  19.821  10.799  0.00  0.00     0.017 A 
BRANCH  14  18
ATOM     18  O6  UNK A          48.250  21.050   7.376  0.00  0.00    -0.358 OA
ATOM     19  H9  UNK A          48.874  21.760   7.597  0.00  0.00     0.217 HD
ENDBRANCH  14  18
BRANCH  15  20
ATOM     20  O7  UNK A          49.137  18.830   8.791  0.00  0.00    -0.358 OA
ATOM     21  H10 UNK A          49.676  18.576   9.556  0.00  0.00     0.217 HD
ENDBRANCH  15  20
ENDBRANCH   5  12
BRANCH   6  22
ATOM     22  O2  UNK A          43.241  19.727  10.663  0.00  0.00    -0.355 OA
ATOM     23  H6  UNK A          42.334  19.558  10.360  0.00  0.00     0.218 HD
ENDBRANCH   6  22
BRANCH   8  24
ATOM     24  O3  UNK A          40.301  23.786  12.171  0.00  0.00    -0.360 OA
ATOM     25  H7  UNK A          39.805  24.481  12.629  0.00  0.00     0.217 HD
ENDBRANCH   8  24
BRANCH  10  26
ATOM     26  O5  UNK A          43.375  27.393  11.874  0.00  0.00    -0.361 OA
ATOM     27  H8  UNK A          42.779  27.763  12.548  0.00  0.00     0.217 HD
ENDBRANCH  10  26
TORSDOF 6
ENDMDL
MODEL 13
REMARK VINA RESULT:      -5.4      1.550      7.090
REMARK  6 active torsions:
REMARK  status: ('A' for Active; 'I' for Inactive)
REMARK    1  A    between atoms: O2_2  and  C5_12 
REMARK    2  A    between atoms: O3_3  and  C7_14 
REMARK    3  A    between atoms: O5_5  and  C9_16 
REMARK    4  A    between atoms: O6_6  and  C13_20 
REMARK    5  A    between atoms: O7_7  and  C15_22 
REMARK    6  A    between atoms: C3_10  and  C4_11 
ROOT
ATOM      1  O1  UNK A          43.053  22.092  11.342  0.00  0.00    -0.306 OA
ATOM      2  O4  UNK A          43.253  24.264  14.784  0.00  0.00    -0.284 OA
ATOM      3  C1  UNK A          43.351  24.241  12.428  0.00  0.00     0.084 A 
ATOM      4  C2  UNK A          43.273  23.443  11.289  0.00  0.00     0.096 A 
ATOM      5  C3  UNK A          42.886  21.496  12.583  0.00  0.00     0.123 A 
ATOM      6  C5  UNK A          42.947  22.151  13.757  0.00  0.00     0.152 A 
ATOM      7  C6  UNK A          43.189  23.614  13.749  0.00  0.00     0.223 A 
ATOM      8  C7  UNK A          43.580  25.615  12.313  0.00  0.00     0.085 A 
ATOM      9  C8  UNK A          43.426  24.014  10.025  0.00  0.00     0.075 A 
ATOM     10  C9  UNK A          43.655  25.385   9.905  0.00  0.00     0.071 A 
ATOM     11  C11 UNK A          43.731  26.183  11.048  0.00  0.00     0.074 A 
ENDROOT
BRANCH   5  12
ATOM     12  C4  UNK A          42.656  20.044  12.498  0.00  0.00     0.004 A 
ATOM     13  C10 UNK A          41.400  19.516  12.798  0.00  0.00     0.053 A 
ATOM     14  C13 UNK A          41.182  18.142  12.717  0.00  0.00     0.099 A 
ATOM     15  C15 UNK A          42.222  17.292  12.336  0.00  0.00     0.098 A 
ATOM     16  C14 UNK A          43.478  17.819  12.036  0.00  0.00     0.040 A 
ATOM     17  C12 UNK A          43.696  19.194  12.116  0.00  0.00     0.017 A 
BRANCH  14  18
ATOM     18  O6  UNK A          39.952  17.638  13.014  0.00  0.00    -0.358 OA
ATOM     19  H9  UNK A          40.047  16.791  13.477  0.00  0.00     0.217 HD
ENDBRANCH  14  18
BRANCH  15  20
ATOM     20  O7  UNK A          42.021  15.947  12.251  0.00  0.00    -0.358 OA
ATOM     21  H10 UNK A          42.549  15.583  11.524  0.00  0.00     0.217 HD
ENDBRANCH  15  20
ENDBRANCH   5  12
BRANCH   6  22
ATOM     22  O2  UNK A          42.810  21.524  14.976  0.00  0.00    -0.355 OA
ATOM     23  H6  UNK A          42.952  22.163  15.694  0.00  0.00     0.218 HD
ENDBRANCH   6  22
BRANCH   8  24
ATOM     24  O3  UNK A          43.664  26.439  13.394  0.00  0.00    -0.360 OA
ATOM     25  H7  UNK A          44.056  25.972  14.148  0.00  0.00     0.217 HD
ENDBRANCH   8  24
BRANCH  10  26
ATOM     26  O5  UNK A          43.803  25.944   8.674  0.00  0.00    -0.361 OA
ATOM     27  H8  UNK A          44.491  26.631   8.720  0.00  0.00     0.217 HD
ENDBRANCH  10  26
TORSDOF 6
ENDMDL
MODEL 14
REMARK VINA RESULT:      -5.4      5.053      8.024
REMARK  6 active torsions:
REMARK  status: ('A' for Active; 'I' for Inactive)
REMARK    1  A    between atoms: O2_2  and  C5_12 
REMARK    2  A    between atoms: O3_3  and  C7_14 
REMARK    3  A    between atoms: O5_5  and  C9_16 
REMARK    4  A    between atoms: O6_6  and  C13_20 
REMARK    5  A    between atoms: O7_7  and  C15_22 
REMARK    6  A    between atoms: C3_10  and  C4_11 
ROOT
ATOM      1  O1  UNK A          38.043  22.725  11.250  0.00  0.00    -0.306 OA
ATOM      2  O4  UNK A          39.221  26.001  13.369  0.00  0.00    -0.284 OA
ATOM      3  C1  UNK A          37.558  24.961  12.058  0.00  0.00     0.084 A 
ATOM      4  C2  UNK A          37.215  23.812  11.348  0.00  0.00     0.096 A 
ATOM      5  C3  UNK A          39.269  22.765  11.896  0.00  0.00     0.123 A 
ATOM      6  C5  UNK A          39.722  23.815  12.606  0.00  0.00     0.152 A 
ATOM      7  C6  UNK A          38.863  25.016  12.735  0.00  0.00     0.223 A 
ATOM      8  C7  UNK A          36.673  26.040  12.123  0.00  0.00     0.085 A 
ATOM      9  C8  UNK A          35.984  23.737  10.696  0.00  0.00     0.075 A 
ATOM     10  C9  UNK A          35.098  24.813  10.758  0.00  0.00     0.071 A 
ATOM     11  C11 UNK A          35.443  25.962  11.471  0.00  0.00     0.074 A 
ENDROOT
BRANCH   5  12
ATOM     12  C4  UNK A          40.058  21.535  11.710  0.00  0.00     0.004 A 
ATOM     13  C10 UNK A          39.712  20.372  12.399  0.00  0.00     0.053 A 
ATOM     14  C13 UNK A          40.458  19.208  12.222  0.00  0.00     0.099 A 
ATOM     15  C15 UNK A          41.553  19.206  11.357  0.00  0.00     0.098 A 
ATOM     16  C14 UNK A          41.900  20.368  10.668  0.00  0.00     0.040 A 
ATOM     17  C12 UNK A          41.152  21.533  10.844  0.00  0.00     0.017 A 
BRANCH  14  18
ATOM     18  O6  UNK A          40.112  18.079  12.901  0.00  0.00    -0.358 OA
ATOM     19  H9  UNK A          39.202  17.827  12.677  0.00  0.00     0.217 HD
ENDBRANCH  14  18
BRANCH  15  20
ATOM     20  O7  UNK A          42.289  18.074  11.175  0.00  0.00    -0.358 OA
ATOM     21  H10 UNK A          42.415  17.625  12.025  0.00  0.00     0.217 HD
ENDBRANCH  15  20
ENDBRANCH   5  12
BRANCH   6  22
ATOM     22  O2  UNK A          40.961  23.837  13.209  0.00  0.00    -0.355 OA
ATOM     23  H6  UNK A          41.135  22.982  13.636  0.00  0.00     0.218 HD
ENDBRANCH   6  22
BRANCH   8  24
ATOM     24  O3  UNK A          36.960  27.186  12.803  0.00  0.00    -0.360 OA
ATOM     25  H7  UNK A          37.591  27.009  13.517  0.00  0.00     0.217 HD
ENDBRANCH   8  24
BRANCH  10  26
ATOM     26  O5  UNK A          33.897  24.741  10.123  0.00  0.00    -0.361 OA
ATOM     27  H8  UNK A          33.286  25.380  10.530  0.00  0.00     0.217 HD
ENDBRANCH  10  26
TORSDOF 6
ENDMDL
MODEL 15
REMARK VINA RESULT:      -5.4      3.656      4.496
REMARK  6 active torsions:
REMARK  status: ('A' for Active; 'I' for Inactive)
REMARK    1  A    between atoms: O2_2  and  C5_12 
REMARK    2  A    between atoms: O3_3  and  C7_14 
REMARK    3  A    between atoms: O5_5  and  C9_16 
REMARK    4  A    between atoms: O6_6  and  C13_20 
REMARK    5  A    between atoms: O7_7  and  C15_22 
REMARK    6  A    between atoms: C3_10  and  C4_11 
ROOT
ATOM      1  O1  UNK A          39.835  19.863  12.159  0.00  0.00    -0.306 OA
ATOM      2  O4  UNK A          43.563  20.639  10.707  0.00  0.00    -0.284 OA
ATOM      3  C1  UNK A          42.120  19.127  11.799  0.00  0.00     0.084 A 
ATOM      4  C2  UNK A          40.826  18.923  12.276  0.00  0.00     0.096 A 
ATOM      5  C3  UNK A          40.129  21.061  11.529  0.00  0.00     0.123 A 
ATOM      6  C5  UNK A          41.338  21.385  11.033  0.00  0.00     0.152 A 
ATOM      7  C6  UNK A          42.443  20.402  11.141  0.00  0.00     0.223 A 
ATOM      8  C7  UNK A          43.090  18.133  11.948  0.00  0.00     0.085 A 
ATOM      9  C8  UNK A          40.496  17.723  12.906  0.00  0.00     0.075 A 
ATOM     10  C9  UNK A          41.462  16.728  13.056  0.00  0.00     0.071 A 
ATOM     11  C11 UNK A          42.757  16.934  12.577  0.00  0.00     0.074 A 
ENDROOT
BRANCH   5  12
ATOM     12  C4  UNK A          38.978  21.979  11.470  0.00  0.00     0.004 A 
ATOM     13  C10 UNK A          38.859  23.011  12.401  0.00  0.00     0.053 A 
ATOM     14  C13 UNK A          37.771  23.880  12.345  0.00  0.00     0.099 A 
ATOM     15  C15 UNK A          36.798  23.716  11.358  0.00  0.00     0.098 A 
ATOM     16  C14 UNK A          36.916  22.684  10.427  0.00  0.00     0.040 A 
ATOM     17  C12 UNK A          38.006  21.816  10.483  0.00  0.00     0.017 A 
BRANCH  14  18
ATOM     18  O6  UNK A          37.665  24.883  13.260  0.00  0.00    -0.358 OA
ATOM     19  H9  UNK A          37.284  25.672  12.840  0.00  0.00     0.217 HD
ENDBRANCH  14  18
BRANCH  15  20
ATOM     20  O7  UNK A          35.730  24.560  11.292  0.00  0.00    -0.358 OA
ATOM     21  H10 UNK A          35.111  24.362  12.012  0.00  0.00     0.217 HD
ENDBRANCH  15  20
ENDBRANCH   5  12
BRANCH   6  22
ATOM     22  O2  UNK A          41.607  22.600  10.440  0.00  0.00    -0.355 OA
ATOM     23  H6  UNK A          41.779  22.474   9.493  0.00  0.00     0.218 HD
ENDBRANCH   6  22
BRANCH   8  24
ATOM     24  O3  UNK A          44.369  18.282  11.500  0.00  0.00    -0.360 OA
ATOM     25  H7  UNK A          44.423  18.081  10.553  0.00  0.00     0.217 HD
ENDBRANCH   8  24
BRANCH  10  26
ATOM     26  O5  UNK A          41.142  15.558  13.670  0.00  0.00    -0.361 OA
ATOM     27  H8  UNK A          41.043  14.864  12.996  0.00  0.00     0.217 HD
ENDBRANCH  10  26
TORSDOF 6
ENDMDL
MODEL 16
REMARK VINA RESULT:      -5.4      5.585      6.853
REMARK  6 active torsions:
REMARK  status: ('A' for Active; 'I' for Inactive)
REMARK    1  A    between atoms: O2_2  and  C5_12 
REMARK    2  A    between atoms: O3_3  and  C7_14 
REMARK    3  A    between atoms: O5_5  and  C9_16 
REMARK    4  A    between atoms: O6_6  and  C13_20 
REMARK    5  A    between atoms: O7_7  and  C15_22 
REMARK    6  A    between atoms: C3_10  and  C4_11 
ROOT
ATOM      1  O1  UNK A          38.560  22.032  11.349  0.00  0.00    -0.306 OA
ATOM      2  O4  UNK A          41.268  24.731  12.760  0.00  0.00    -0.284 OA
ATOM      3  C1  UNK A          40.873  22.615  11.797  0.00  0.00     0.084 A 
ATOM      4  C2  UNK A          39.898  21.735  11.331  0.00  0.00     0.096 A 
ATOM      5  C3  UNK A          38.162  23.266  11.840  0.00  0.00     0.123 A 
ATOM      6  C5  UNK A          39.001  24.199  12.327  0.00  0.00     0.152 A 
ATOM      7  C6  UNK A          40.457  23.920  12.332  0.00  0.00     0.223 A 
ATOM      8  C7  UNK A          42.223  22.257  11.754  0.00  0.00     0.085 A 
ATOM      9  C8  UNK A          40.267  20.490  10.821  0.00  0.00     0.075 A 
ATOM     10  C9  UNK A          41.614  20.130  10.777  0.00  0.00     0.071 A 
ATOM     11  C11 UNK A          42.590  21.012  11.243  0.00  0.00     0.074 A 
ENDROOT
BRANCH   5  12
ATOM     12  C4  UNK A          36.702  23.456  11.803  0.00  0.00     0.004 A 
ATOM     13  C10 UNK A          36.121  24.206  10.780  0.00  0.00     0.053 A 
ATOM     14  C13 UNK A          34.738  24.384  10.744  0.00  0.00     0.099 A 
ATOM     15  C15 UNK A          33.936  23.815  11.733  0.00  0.00     0.098 A 
ATOM     16  C14 UNK A          34.516  23.066  12.756  0.00  0.00     0.040 A 
ATOM     17  C12 UNK A          35.899  22.886  12.792  0.00  0.00     0.017 A 
BRANCH  14  18
ATOM     18  O6  UNK A          34.183  25.119   9.741  0.00  0.00    -0.358 OA
ATOM     19  H9  UNK A          34.131  26.052  10.006  0.00  0.00     0.217 HD
ENDBRANCH  14  18
BRANCH  15  20
ATOM     20  O7  UNK A          32.584  23.982  11.708  0.00  0.00    -0.358 OA
ATOM     21  H10 UNK A          32.167  23.216  11.283  0.00  0.00     0.217 HD
ENDBRANCH  15  20
ENDBRANCH   5  12
BRANCH   6  22
ATOM     22  O2  UNK A          38.570  25.404  12.839  0.00  0.00    -0.355 OA
ATOM     23  H6  UNK A          39.236  25.760  13.449  0.00  0.00     0.218 HD
ENDBRANCH   6  22
BRANCH   8  24
ATOM     24  O3  UNK A          43.215  23.080  12.197  0.00  0.00    -0.360 OA
ATOM     25  H7  UNK A          43.589  23.588  11.462  0.00  0.00     0.217 HD
ENDBRANCH   8  24
BRANCH  10  26
ATOM     26  O5  UNK A          41.977  18.917  10.279  0.00  0.00    -0.361 OA
ATOM     27  H8  UNK A          41.288  18.266  10.499  0.00  0.00     0.217 HD
ENDBRANCH  10  26
TORSDOF 6
ENDMDL
MODEL 17
REMARK VINA RESULT:      -5.4      4.187      5.724
REMARK  6 active torsions:
REMARK  status: ('A' for Active; 'I' for Inactive)
REMARK    1  A    between atoms: O2_2  and  C5_12 
REMARK    2  A    between atoms: O3_3  and  C7_14 
REMARK    3  A    between atoms: O5_5  and  C9_16 
REMARK    4  A    between atoms: O6_6  and  C13_20 
REMARK    5  A    between atoms: O7_7  and  C15_22 
REMARK    6  A    between atoms: C3_10  and  C4_11 
ROOT
ATOM      1  O1  UNK A          40.695  22.505  11.147  0.00  0.00    -0.306 OA
ATOM      2  O4  UNK A          40.806  18.533  12.054  0.00  0.00    -0.284 OA
ATOM      3  C1  UNK A          41.985  20.464  11.389  0.00  0.00     0.084 A 
ATOM      4  C2  UNK A          41.881  21.821  11.090  0.00  0.00     0.096 A 
ATOM      5  C3  UNK A          39.553  21.819  11.533  0.00  0.00     0.123 A 
ATOM      6  C5  UNK A          39.517  20.509  11.839  0.00  0.00     0.152 A 
ATOM      7  C6  UNK A          40.776  19.727  11.785  0.00  0.00     0.223 A 
ATOM      8  C7  UNK A          43.222  19.818  11.311  0.00  0.00     0.085 A 
ATOM      9  C8  UNK A          43.014  22.541  10.709  0.00  0.00     0.075 A 
ATOM     10  C9  UNK A          44.250  21.900  10.631  0.00  0.00     0.071 A 
ATOM     11  C11 UNK A          44.353  20.541  10.931  0.00  0.00     0.074 A 
ENDROOT
BRANCH   5  12
ATOM     12  C4  UNK A          38.351  22.670  11.553  0.00  0.00     0.004 A 
ATOM     13  C10 UNK A          38.192  23.632  12.552  0.00  0.00     0.053 A 
ATOM     14  C13 UNK A          37.054  24.438  12.570  0.00  0.00     0.099 A 
ATOM     15  C15 UNK A          36.073  24.281  11.591  0.00  0.00     0.098 A 
ATOM     16  C14 UNK A          36.231  23.320  10.592  0.00  0.00     0.040 A 
ATOM     17  C12 UNK A          37.370  22.515  10.573  0.00  0.00     0.017 A 
BRANCH  14  18
ATOM     18  O6  UNK A          36.909  25.372  13.551  0.00  0.00    -0.358 OA
ATOM     19  H9  UNK A          36.057  25.825  13.449  0.00  0.00     0.217 HD
ENDBRANCH  14  18
BRANCH  15  20
ATOM     20  O7  UNK A          34.958  25.064  11.598  0.00  0.00    -0.358 OA
ATOM     21  H10 UNK A          35.111  25.848  12.148  0.00  0.00     0.217 HD
ENDBRANCH  15  20
ENDBRANCH   5  12
BRANCH   6  22
ATOM     22  O2  UNK A          38.358  19.849  12.187  0.00  0.00    -0.355 OA
ATOM     23  H6  UNK A          37.599  20.449  12.101  0.00  0.00     0.218 HD
ENDBRANCH   6  22
BRANCH   8  24
ATOM     24  O3  UNK A          43.379  18.494  11.593  0.00  0.00    -0.360 OA
ATOM     25  H7  UNK A          42.865  18.250  12.378  0.00  0.00     0.217 HD
ENDBRANCH   8  24
BRANCH  10  26
ATOM     26  O5  UNK A          45.356  22.600  10.260  0.00  0.00    -0.361 OA
ATOM     27  H8  UNK A          46.115  22.293  10.785  0.00  0.00     0.217 HD
ENDBRANCH  10  26
TORSDOF 6
ENDMDL
MODEL 18
REMARK VINA RESULT:      -5.4      4.693      7.809
REMARK  6 active torsions:
REMARK  status: ('A' for Active; 'I' for Inactive)
REMARK    1  A    between atoms: O2_2  and  C5_12 
REMARK    2  A    between atoms: O3_3  and  C7_14 
REMARK    3  A    between atoms: O5_5  and  C9_16 
REMARK    4  A    between atoms: O6_6  and  C13_20 
REMARK    5  A    between atoms: O7_7  and  C15_22 
REMARK    6  A    between atoms: C3_10  and  C4_11 
ROOT
ATOM      1  O1  UNK A          38.149  22.262  11.594  0.00  0.00    -0.306 OA
ATOM      2  O4  UNK A          39.795  25.660  13.129  0.00  0.00    -0.284 OA
ATOM      3  C1  UNK A          38.000  24.655  11.976  0.00  0.00     0.084 A 
ATOM      4  C2  UNK A          37.492  23.459  11.472  0.00  0.00     0.096 A 
ATOM      5  C3  UNK A          39.365  22.240  12.258  0.00  0.00     0.123 A 
ATOM      6  C5  UNK A          39.968  23.323  12.782  0.00  0.00     0.152 A 
ATOM      7  C6  UNK A          39.296  24.640  12.670  0.00  0.00     0.223 A 
ATOM      8  C7  UNK A          37.286  25.845  11.820  0.00  0.00     0.085 A 
ATOM      9  C8  UNK A          36.265  23.447  10.807  0.00  0.00     0.075 A 
ATOM     10  C9  UNK A          35.549  24.634  10.650  0.00  0.00     0.071 A 
ATOM     11  C11 UNK A          36.059  25.831  11.156  0.00  0.00     0.074 A 
ENDROOT
BRANCH   5  12
ATOM     12  C4  UNK A          39.963  20.895  12.319  0.00  0.00     0.004 A 
ATOM     13  C10 UNK A          40.804  20.457  11.295  0.00  0.00     0.053 A 
ATOM     14  C13 UNK A          41.370  19.184  11.353  0.00  0.00     0.099 A 
ATOM     15  C15 UNK A          41.095  18.347  12.435  0.00  0.00     0.098 A 
ATOM     16  C14 UNK A          40.254  18.784  13.458  0.00  0.00     0.040 A 
ATOM     17  C12 UNK A          39.688  20.057  13.401  0.00  0.00     0.017 A 
BRANCH  14  18
ATOM     18  O6  UNK A          42.189  18.768  10.347  0.00  0.00    -0.358 OA
ATOM     19  H9  UNK A          43.040  19.231  10.404  0.00  0.00     0.217 HD
ENDBRANCH  14  18
BRANCH  15  20
ATOM     20  O7  UNK A          41.643  17.102  12.503  0.00  0.00    -0.358 OA
ATOM     21  H10 UNK A          40.956  16.453  12.721  0.00  0.00     0.217 HD
ENDBRANCH  15  20
ENDBRANCH   5  12
BRANCH   6  22
ATOM     22  O2  UNK A          41.194  23.272  13.409  0.00  0.00    -0.355 OA
ATOM     23  H6  UNK A          41.839  23.807  12.917  0.00  0.00     0.218 HD
ENDBRANCH   6  22
BRANCH   8  24
ATOM     24  O3  UNK A          37.738  27.040  12.294  0.00  0.00    -0.360 OA
ATOM     25  H7  UNK A          38.682  27.147  12.102  0.00  0.00     0.217 HD
ENDBRANCH   8  24
BRANCH  10  26
ATOM     26  O5  UNK A          34.352  24.625  10.003  0.00  0.00    -0.361 OA
ATOM     27  H8  UNK A          34.353  25.325   9.328  0.00  0.00     0.217 HD
ENDBRANCH  10  26
TORSDOF 6
ENDMDL
MODEL 19
REMARK VINA RESULT:      -5.4      3.493      5.546
REMARK  6 active torsions:
REMARK  status: ('A' for Active; 'I' for Inactive)
REMARK    1  A    between atoms: O2_2  and  C5_12 
REMARK    2  A    between atoms: O3_3  and  C7_14 
REMARK    3  A    between atoms: O5_5  and  C9_16 
REMARK    4  A    between atoms: O6_6  and  C13_20 
REMARK    5  A    between atoms: O7_7  and  C15_22 
REMARK    6  A    between atoms: C3_10  and  C4_11 
ROOT
ATOM      1  O1  UNK A          40.860  25.076  12.630  0.00  0.00    -0.306 OA
ATOM      2  O4  UNK A          44.454  25.484  10.752  0.00  0.00    -0.284 OA
ATOM      3  C1  UNK A          42.681  24.064  11.384  0.00  0.00     0.084 A 
ATOM      4  C2  UNK A          41.454  23.990  12.042  0.00  0.00     0.096 A 
ATOM      5  C3  UNK A          41.501  26.303  12.555  0.00  0.00     0.123 A 
ATOM      6  C5  UNK A          42.690  26.507  11.957  0.00  0.00     0.152 A 
ATOM      7  C6  UNK A          43.373  25.360  11.312  0.00  0.00     0.223 A 
ATOM      8  C7  UNK A          43.239  22.922  10.804  0.00  0.00     0.085 A 
ATOM      9  C8  UNK A          40.780  22.772  12.126  0.00  0.00     0.075 A 
ATOM     10  C9  UNK A          41.334  21.630  11.548  0.00  0.00     0.071 A 
ATOM     11  C11 UNK A          42.562  21.706  10.889  0.00  0.00     0.074 A 
ENDROOT
BRANCH   5  12
ATOM     12  C4  UNK A          40.757  27.383  13.225  0.00  0.00     0.004 A 
ATOM     13  C10 UNK A          39.642  27.952  12.607  0.00  0.00     0.053 A 
ATOM     14  C13 UNK A          38.937  28.973  13.242  0.00  0.00     0.099 A 
ATOM     15  C15 UNK A          39.347  29.428  14.496  0.00  0.00     0.098 A 
ATOM     16  C14 UNK A          40.461  28.861  15.114  0.00  0.00     0.040 A 
ATOM     17  C12 UNK A          41.166  27.838  14.479  0.00  0.00     0.017 A 
BRANCH  14  18
ATOM     18  O6  UNK A          37.852  29.521  12.629  0.00  0.00    -0.358 OA
ATOM     19  H9  UNK A          37.991  29.538  11.668  0.00  0.00     0.217 HD
ENDBRANCH  14  18
BRANCH  15  20
ATOM     20  O7  UNK A          38.665  30.425  15.127  0.00  0.00    -0.358 OA
ATOM     21  H10 UNK A          39.234  31.205  15.217  0.00  0.00     0.217 HD
ENDBRANCH  15  20
ENDBRANCH   5  12
BRANCH   6  22
ATOM     22  O2  UNK A          43.317  27.734  11.928  0.00  0.00    -0.355 OA
ATOM     23  H6  UNK A          44.271  27.614  11.793  0.00  0.00     0.218 HD
ENDBRANCH   6  22
BRANCH   8  24
ATOM     24  O3  UNK A          44.435  22.940  10.150  0.00  0.00    -0.360 OA
ATOM     25  H7  UNK A          44.555  23.782   9.685  0.00  0.00     0.217 HD
ENDBRANCH   8  24
BRANCH  10  26
ATOM     26  O5  UNK A          40.678  20.441  11.628  0.00  0.00    -0.361 OA
ATOM     27  H8  UNK A          41.331  19.720  11.646  0.00  0.00     0.217 HD
ENDBRANCH  10  26
TORSDOF 6
ENDMDL
MODEL 20
REMARK VINA RESULT:      -5.2      2.745      4.728
REMARK  6 active torsions:
REMARK  status: ('A' for Active; 'I' for Inactive)
REMARK    1  A    between atoms: O2_2  and  C5_12 
REMARK    2  A    between atoms: O3_3  and  C7_14 
REMARK    3  A    between atoms: O5_5  and  C9_16 
REMARK    4  A    between atoms: O6_6  and  C13_20 
REMARK    5  A    between atoms: O7_7  and  C15_22 
REMARK    6  A    between atoms: C3_10  and  C4_11 
ROOT
ATOM      1  O1  UNK A          41.958  21.244  10.695  0.00  0.00    -0.306 OA
ATOM      2  O4  UNK A          41.117  18.860  13.892  0.00  0.00    -0.284 OA
ATOM      3  C1  UNK A          40.305  20.249  12.167  0.00  0.00     0.084 A 
ATOM      4  C2  UNK A          40.658  21.052  11.085  0.00  0.00     0.096 A 
ATOM      5  C3  UNK A          42.962  20.600  11.400  0.00  0.00     0.123 A 
ATOM      6  C5  UNK A          42.756  19.805  12.467  0.00  0.00     0.152 A 
ATOM      7  C6  UNK A          41.367  19.573  12.929  0.00  0.00     0.223 A 
ATOM      8  C7  UNK A          38.962  20.092  12.520  0.00  0.00     0.085 A 
ATOM      9  C8  UNK A          39.669  21.706  10.349  0.00  0.00     0.075 A 
ATOM     10  C9  UNK A          38.327  21.551  10.698  0.00  0.00     0.071 A 
ATOM     11  C11 UNK A          37.975  20.746  11.782  0.00  0.00     0.074 A 
ENDROOT
BRANCH   5  12
ATOM     12  C4  UNK A          44.309  20.890  10.878  0.00  0.00     0.004 A 
ATOM     13  C10 UNK A          44.984  22.040  11.286  0.00  0.00     0.053 A 
ATOM     14  C13 UNK A          46.259  22.314  10.793  0.00  0.00     0.099 A 
ATOM     15  C15 UNK A          46.860  21.437   9.888  0.00  0.00     0.098 A 
ATOM     16  C14 UNK A          46.185  20.287   9.479  0.00  0.00     0.040 A 
ATOM     17  C12 UNK A          44.910  20.013   9.974  0.00  0.00     0.017 A 
BRANCH  14  18
ATOM     18  O6  UNK A          46.908  23.440  11.197  0.00  0.00    -0.358 OA
ATOM     19  H9  UNK A          46.482  23.797  11.994  0.00  0.00     0.217 HD
ENDBRANCH  14  18
BRANCH  15  20
ATOM     20  O7  UNK A          48.106  21.693   9.400  0.00  0.00    -0.358 OA
ATOM     21  H10 UNK A          48.624  20.873   9.379  0.00  0.00     0.217 HD
ENDBRANCH  15  20
ENDBRANCH   5  12
BRANCH   6  22
ATOM     22  O2  UNK A          43.780  19.205  13.167  0.00  0.00    -0.355 OA
ATOM     23  H6  UNK A          43.416  18.660  13.883  0.00  0.00     0.218 HD
ENDBRANCH   6  22
BRANCH   8  24
ATOM     24  O3  UNK A          38.564  19.319  13.569  0.00  0.00    -0.360 OA
ATOM     25  H7  UNK A          37.905  19.786  14.105  0.00  0.00     0.217 HD
ENDBRANCH   8  24
BRANCH  10  26
ATOM     26  O5  UNK A          37.361  22.187   9.981  0.00  0.00    -0.361 OA
ATOM     27  H8  UNK A          37.771  22.618   9.212  0.00  0.00     0.217 HD
ENDBRANCH  10  26
TORSDOF 6
ENDMDL
