MODEL 1
REMARK VINA RESULT:      -6.3      0.000      0.000
REMARK  6 active torsions:
REMARK  status: ('A' for Active; 'I' for Inactive)
REMARK    1  A    between atoms: O2_2  and  C5_12 
REMARK    2  A    between atoms: O3_3  and  C7_14 
REMARK    3  A    between atoms: O5_5  and  C9_16 
REMARK    4  A    between atoms: O6_6  and  C13_20 
REMARK    5  A    between atoms: O7_7  and  C15_22 
REMARK    6  A    between atoms: C3_10  and  C4_11 
ROOT
ATOM      1  O1  UNK A          43.229   2.007   7.859  0.00  0.00    -0.306 OA
ATOM      2  O4  UNK A          43.775   5.222  10.304  0.00  0.00    -0.284 OA
ATOM      3  C1  UNK A          44.724   3.670   8.803  0.00  0.00     0.084 A 
ATOM      4  C2  UNK A          44.472   2.570   7.985  0.00  0.00     0.096 A 
ATOM      5  C3  UNK A          42.175   2.565   8.566  0.00  0.00     0.123 A 
ATOM      6  C5  UNK A          42.286   3.621   9.394  0.00  0.00     0.152 A 
ATOM      7  C6  UNK A          43.613   4.259   9.566  0.00  0.00     0.223 A 
ATOM      8  C7  UNK A          46.013   4.201   8.893  0.00  0.00     0.085 A 
ATOM      9  C8  UNK A          45.511   1.992   7.254  0.00  0.00     0.075 A 
ATOM     10  C9  UNK A          46.799   2.520   7.341  0.00  0.00     0.071 A 
ATOM     11  C11 UNK A          47.049   3.622   8.160  0.00  0.00     0.074 A 
ENDROOT
BRANCH   5  12
ATOM     12  C4  UNK A          40.898   1.867   8.340  0.00  0.00     0.004 A 
ATOM     13  C10 UNK A          40.144   2.139   7.198  0.00  0.00     0.053 A 
ATOM     14  C13 UNK A          38.936   1.477   6.985  0.00  0.00     0.099 A 
ATOM     15  C15 UNK A          38.479   0.542   7.915  0.00  0.00     0.098 A 
ATOM     16  C14 UNK A          39.232   0.270   9.056  0.00  0.00     0.040 A 
ATOM     17  C12 UNK A          40.441   0.931   9.270  0.00  0.00     0.017 A 
BRANCH  14  18
ATOM     18  O6  UNK A          38.208   1.752   5.867  0.00  0.00    -0.358 OA
ATOM     19  H9  UNK A          38.520   1.204   5.129  0.00  0.00     0.217 HD
ENDBRANCH  14  18
BRANCH  15  20
ATOM     20  O7  UNK A          37.301  -0.112   7.716  0.00  0.00    -0.358 OA
ATOM     21  H10 UNK A          36.627   0.513   7.406  0.00  0.00     0.217 HD
ENDBRANCH  15  20
ENDBRANCH   5  12
BRANCH   6  22
ATOM     22  O2  UNK A          41.224   4.131  10.108  0.00  0.00    -0.355 OA
ATOM     23  H6  UNK A          41.077   3.600  10.907  0.00  0.00     0.218 HD
ENDBRANCH   6  22
BRANCH   8  24
ATOM     24  O3  UNK A          46.313   5.275   9.677  0.00  0.00    -0.360 OA
ATOM     25  H7  UNK A          46.896   5.012  10.406  0.00  0.00     0.217 HD
ENDBRANCH   8  24
BRANCH  10  26
ATOM     26  O5  UNK A          47.813   1.959   6.628  0.00  0.00    -0.361 OA
ATOM     27  H8  UNK A          47.554   1.914   5.692  0.00  0.00     0.217 HD
ENDBRANCH  10  26
TORSDOF 6
ENDMDL
MODEL 2
REMARK VINA RESULT:      -6.3      0.915      1.057
REMARK  6 active torsions:
REMARK  status: ('A' for Active; 'I' for Inactive)
REMARK    1  A    between atoms: O2_2  and  C5_12 
REMARK    2  A    between atoms: O3_3  and  C7_14 
REMARK    3  A    between atoms: O5_5  and  C9_16 
REMARK    4  A    between atoms: O6_6  and  C13_20 
REMARK    5  A    between atoms: O7_7  and  C15_22 
REMARK    6  A    between atoms: C3_10  and  C4_11 
ROOT
ATOM      1  O1  UNK A          43.104   2.597   8.376  0.00  0.00    -0.306 OA
ATOM      2  O4  UNK A          42.700   5.979  10.615  0.00  0.00    -0.284 OA
ATOM      3  C1  UNK A          44.129   4.536   9.416  0.00  0.00     0.084 A 
ATOM      4  C2  UNK A          44.201   3.369   8.658  0.00  0.00     0.096 A 
ATOM      5  C3  UNK A          41.868   3.003   8.856  0.00  0.00     0.123 A 
ATOM      6  C5  UNK A          41.665   4.103   9.605  0.00  0.00     0.152 A 
ATOM      7  C6  UNK A          42.823   4.965   9.939  0.00  0.00     0.223 A 
ATOM      8  C7  UNK A          45.282   5.282   9.672  0.00  0.00     0.085 A 
ATOM      9  C8  UNK A          45.429   2.939   8.153  0.00  0.00     0.075 A 
ATOM     10  C9  UNK A          46.582   3.681   8.407  0.00  0.00     0.071 A 
ATOM     11  C11 UNK A          46.508   4.851   9.166  0.00  0.00     0.074 A 
ENDROOT
BRANCH   5  12
ATOM     12  C4  UNK A          40.777   2.087   8.482  0.00  0.00     0.004 A 
ATOM     13  C10 UNK A          40.026   2.327   7.330  0.00  0.00     0.053 A 
ATOM     14  C13 UNK A          38.995   1.459   6.976  0.00  0.00     0.099 A 
ATOM     15  C15 UNK A          38.710   0.351   7.774  0.00  0.00     0.098 A 
ATOM     16  C14 UNK A          39.460   0.111   8.926  0.00  0.00     0.040 A 
ATOM     17  C12 UNK A          40.493   0.978   9.280  0.00  0.00     0.017 A 
BRANCH  14  18
ATOM     18  O6  UNK A          38.268   1.705   5.850  0.00  0.00    -0.358 OA
ATOM     19  H9  UNK A          38.673   2.432   5.350  0.00  0.00     0.217 HD
ENDBRANCH  14  18
BRANCH  15  20
ATOM     20  O7  UNK A          37.705  -0.505   7.438  0.00  0.00    -0.358 OA
ATOM     21  H10 UNK A          37.315  -0.883   8.241  0.00  0.00     0.217 HD
ENDBRANCH  15  20
ENDBRANCH   5  12
BRANCH   6  22
ATOM     22  O2  UNK A          40.427   4.462  10.094  0.00  0.00    -0.355 OA
ATOM     23  H6  UNK A          40.521   5.197  10.721  0.00  0.00     0.218 HD
ENDBRANCH   6  22
BRANCH   8  24
ATOM     24  O3  UNK A          45.267   6.429  10.407  0.00  0.00    -0.360 OA
ATOM     25  H7  UNK A          44.796   6.292  11.243  0.00  0.00     0.217 HD
ENDBRANCH   8  24
BRANCH  10  26
ATOM     26  O5  UNK A          47.780   3.265   7.915  0.00  0.00    -0.361 OA
ATOM     27  H8  UNK A          48.494   3.667   8.439  0.00  0.00     0.217 HD
ENDBRANCH  10  26
TORSDOF 6
ENDMDL
MODEL 3
REMARK VINA RESULT:      -6.1      1.214      3.021
REMARK  6 active torsions:
REMARK  status: ('A' for Active; 'I' for Inactive)
REMARK    1  A    between atoms: O2_2  and  C5_12 
REMARK    2  A    between atoms: O3_3  and  C7_14 
REMARK    3  A    between atoms: O5_5  and  C9_16 
REMARK    4  A    between atoms: O6_6  and  C13_20 
REMARK    5  A    between atoms: O7_7  and  C15_22 
REMARK    6  A    between atoms: C3_10  and  C4_11 
ROOT
ATOM      1  O1  UNK A          42.451   3.331   9.032  0.00  0.00    -0.306 OA
ATOM      2  O4  UNK A          46.039   2.295   7.400  0.00  0.00    -0.284 OA
ATOM      3  C1  UNK A          44.825   3.770   8.783  0.00  0.00     0.084 A 
ATOM      4  C2  UNK A          43.570   4.072   9.308  0.00  0.00     0.096 A 
ATOM      5  C3  UNK A          42.577   2.225   8.205  0.00  0.00     0.123 A 
ATOM      6  C5  UNK A          43.727   1.831   7.628  0.00  0.00     0.152 A 
ATOM      7  C6  UNK A          44.963   2.606   7.894  0.00  0.00     0.223 A 
ATOM      8  C7  UNK A          45.931   4.563   9.099  0.00  0.00     0.085 A 
ATOM      9  C8  UNK A          43.413   5.172  10.152  0.00  0.00     0.075 A 
ATOM     10  C9  UNK A          44.515   5.966  10.470  0.00  0.00     0.071 A 
ATOM     11  C11 UNK A          45.771   5.662   9.944  0.00  0.00     0.074 A 
ENDROOT
BRANCH   5  12
ATOM     12  C4  UNK A          41.302   1.519   7.990  0.00  0.00     0.004 A 
ATOM     13  C10 UNK A          40.361   2.031   7.097  0.00  0.00     0.053 A 
ATOM     14  C13 UNK A          39.155   1.361   6.894  0.00  0.00     0.099 A 
ATOM     15  C15 UNK A          38.888   0.179   7.585  0.00  0.00     0.098 A 
ATOM     16  C14 UNK A          39.828  -0.333   8.479  0.00  0.00     0.040 A 
ATOM     17  C12 UNK A          41.035   0.336   8.682  0.00  0.00     0.017 A 
BRANCH  14  18
ATOM     18  O6  UNK A          38.243   1.872   6.020  0.00  0.00    -0.358 OA
ATOM     19  H9  UNK A          37.358   1.846   6.417  0.00  0.00     0.217 HD
ENDBRANCH  14  18
BRANCH  15  20
ATOM     20  O7  UNK A          37.714  -0.485   7.394  0.00  0.00    -0.358 OA
ATOM     21  H10 UNK A          36.969   0.127   7.508  0.00  0.00     0.217 HD
ENDBRANCH  15  20
ENDBRANCH   5  12
BRANCH   6  22
ATOM     22  O2  UNK A          43.813   0.746   6.784  0.00  0.00    -0.355 OA
ATOM     23  H6  UNK A          43.676   1.030   5.865  0.00  0.00     0.218 HD
ENDBRANCH   6  22
BRANCH   8  24
ATOM     24  O3  UNK A          47.179   4.311   8.613  0.00  0.00    -0.360 OA
ATOM     25  H7  UNK A          47.805   4.171   9.340  0.00  0.00     0.217 HD
ENDBRANCH   8  24
BRANCH  10  26
ATOM     26  O5  UNK A          44.364   7.039  11.293  0.00  0.00    -0.361 OA
ATOM     27  H8  UNK A          44.714   7.830  10.848  0.00  0.00     0.217 HD
ENDBRANCH  10  26
TORSDOF 6
ENDMDL
MODEL 4
REMARK VINA RESULT:      -6.1      3.086      5.163
REMARK  6 active torsions:
REMARK  status: ('A' for Active; 'I' for Inactive)
REMARK    1  A    between atoms: O2_2  and  C5_12 
REMARK    2  A    between atoms: O3_3  and  C7_14 
REMARK    3  A    between atoms: O5_5  and  C9_16 
REMARK    4  A    between atoms: O6_6  and  C13_20 
REMARK    5  A    between atoms: O7_7  and  C15_22 
REMARK    6  A    between atoms: C3_10  and  C4_11 
ROOT
ATOM      1  O1  UNK A          39.788   0.230   8.814  0.00  0.00    -0.306 OA
ATOM      2  O4  UNK A          43.626  -0.683   9.836  0.00  0.00    -0.284 OA
ATOM      3  C1  UNK A          41.962   0.971   9.598  0.00  0.00     0.084 A 
ATOM      4  C2  UNK A          40.640   1.218   9.234  0.00  0.00     0.096 A 
ATOM      5  C3  UNK A          40.259  -1.073   8.762  0.00  0.00     0.123 A 
ATOM      6  C5  UNK A          41.514  -1.443   9.078  0.00  0.00     0.152 A 
ATOM      7  C6  UNK A          42.472  -0.407   9.533  0.00  0.00     0.223 A 
ATOM      8  C7  UNK A          42.785   2.019  10.018  0.00  0.00     0.085 A 
ATOM      9  C8  UNK A          40.133   2.517   9.285  0.00  0.00     0.075 A 
ATOM     10  C9  UNK A          40.952   3.566   9.704  0.00  0.00     0.071 A 
ATOM     11  C11 UNK A          42.276   3.316  10.069  0.00  0.00     0.074 A 
ENDROOT
BRANCH   5  12
ATOM     12  C4  UNK A          39.244  -2.034   8.296  0.00  0.00     0.004 A 
ATOM     13  C10 UNK A          39.402  -2.676   7.068  0.00  0.00     0.053 A 
ATOM     14  C13 UNK A          38.442  -3.587   6.628  0.00  0.00     0.099 A 
ATOM     15  C15 UNK A          37.322  -3.853   7.415  0.00  0.00     0.098 A 
ATOM     16  C14 UNK A          37.163  -3.211   8.643  0.00  0.00     0.040 A 
ATOM     17  C12 UNK A          38.124  -2.301   9.084  0.00  0.00     0.017 A 
BRANCH  14  18
ATOM     18  O6  UNK A          38.607  -4.207   5.427  0.00  0.00    -0.358 OA
ATOM     19  H9  UNK A          37.960  -4.925   5.337  0.00  0.00     0.217 HD
ENDBRANCH  14  18
BRANCH  15  20
ATOM     20  O7  UNK A          36.377  -4.742   6.996  0.00  0.00    -0.358 OA
ATOM     21  H10 UNK A          36.711  -5.647   7.098  0.00  0.00     0.217 HD
ENDBRANCH  15  20
ENDBRANCH   5  12
BRANCH   6  22
ATOM     22  O2  UNK A          41.961  -2.743   8.985  0.00  0.00    -0.355 OA
ATOM     23  H6  UNK A          42.244  -3.058   9.858  0.00  0.00     0.218 HD
ENDBRANCH   6  22
BRANCH   8  24
ATOM     24  O3  UNK A          44.084   1.831  10.385  0.00  0.00    -0.360 OA
ATOM     25  H7  UNK A          44.135   1.443  11.271  0.00  0.00     0.217 HD
ENDBRANCH   8  24
BRANCH  10  26
ATOM     26  O5  UNK A          40.460   4.833   9.755  0.00  0.00    -0.361 OA
ATOM     27  H8  UNK A          39.533   4.824   9.461  0.00  0.00     0.217 HD
ENDBRANCH  10  26
TORSDOF 6
ENDMDL
MODEL 5
REMARK VINA RESULT:      -5.9      3.381      4.207
REMARK  6 active torsions:
REMARK  status: ('A' for Active; 'I' for Inactive)
REMARK    1  A    between atoms: O2_2  and  C5_12 
REMARK    2  A    between atoms: O3_3  and  C7_14 
REMARK    3  A    between atoms: O5_5  and  C9_16 
REMARK    4  A    between atoms: O6_6  and  C13_20 
REMARK    5  A    between atoms: O7_7  and  C15_22 
REMARK    6  A    between atoms: C3_10  and  C4_11 
ROOT
ATOM      1  O1  UNK A          45.214   0.172   9.927  0.00  0.00    -0.306 OA
ATOM      2  O4  UNK A          44.358   2.220   6.509  0.00  0.00    -0.284 OA
ATOM      3  C1  UNK A          45.983   1.546   8.080  0.00  0.00     0.084 A 
ATOM      4  C2  UNK A          46.210   0.830   9.253  0.00  0.00     0.096 A 
ATOM      5  C3  UNK A          43.928   0.210   9.410  0.00  0.00     0.123 A 
ATOM      6  C5  UNK A          43.575   0.871   8.292  0.00  0.00     0.152 A 
ATOM      7  C6  UNK A          44.619   1.602   7.533  0.00  0.00     0.223 A 
ATOM      8  C7  UNK A          47.038   2.199   7.437  0.00  0.00     0.085 A 
ATOM      9  C8  UNK A          47.495   0.764   9.793  0.00  0.00     0.075 A 
ATOM     10  C9  UNK A          48.551   1.414   9.154  0.00  0.00     0.071 A 
ATOM     11  C11 UNK A          48.321   2.131   7.978  0.00  0.00     0.074 A 
ENDROOT
BRANCH   5  12
ATOM     12  C4  UNK A          42.957  -0.536  10.228  0.00  0.00     0.004 A 
ATOM     13  C10 UNK A          42.574  -1.825   9.856  0.00  0.00     0.053 A 
ATOM     14  C13 UNK A          41.656  -2.532  10.631  0.00  0.00     0.099 A 
ATOM     15  C15 UNK A          41.117  -1.949  11.779  0.00  0.00     0.098 A 
ATOM     16  C14 UNK A          41.499  -0.660  12.151  0.00  0.00     0.040 A 
ATOM     17  C12 UNK A          42.419   0.047  11.376  0.00  0.00     0.017 A 
BRANCH  14  18
ATOM     18  O6  UNK A          41.289  -3.789  10.258  0.00  0.00    -0.358 OA
ATOM     19  H9  UNK A          40.328  -3.824  10.121  0.00  0.00     0.217 HD
ENDBRANCH  14  18
BRANCH  15  20
ATOM     20  O7  UNK A          40.220  -2.630  12.545  0.00  0.00    -0.358 OA
ATOM     21  H10 UNK A          39.317  -2.375  12.297  0.00  0.00     0.217 HD
ENDBRANCH  15  20
ENDBRANCH   5  12
BRANCH   6  22
ATOM     22  O2  UNK A          42.280   0.917   7.822  0.00  0.00    -0.355 OA
ATOM     23  H6  UNK A          42.239   0.533   6.931  0.00  0.00     0.218 HD
ENDBRANCH   6  22
BRANCH   8  24
ATOM     24  O3  UNK A          46.869   2.912   6.288  0.00  0.00    -0.360 OA
ATOM     25  H7  UNK A          45.935   3.132   6.158  0.00  0.00     0.217 HD
ENDBRANCH   8  24
BRANCH  10  26
ATOM     26  O5  UNK A          49.804   1.351   9.678  0.00  0.00    -0.361 OA
ATOM     27  H8  UNK A          50.307   0.660   9.214  0.00  0.00     0.217 HD
ENDBRANCH  10  26
TORSDOF 6
ENDMDL
MODEL 6
REMARK VINA RESULT:      -5.9      2.173      2.561
REMARK  6 active torsions:
REMARK  status: ('A' for Active; 'I' for Inactive)
REMARK    1  A    between atoms: O2_2  and  C5_12 
REMARK    2  A    between atoms: O3_3  and  C7_14 
REMARK    3  A    between atoms: O5_5  and  C9_16 
REMARK    4  A    between atoms: O6_6  and  C13_20 
REMARK    5  A    between atoms: O7_7  and  C15_22 
REMARK    6  A    between atoms: C3_10  and  C4_11 
ROOT
ATOM      1  O1  UNK A          44.046   1.512   7.632  0.00  0.00    -0.306 OA
ATOM      2  O4  UNK A          45.410   0.979  11.435  0.00  0.00    -0.284 OA
ATOM      3  C1  UNK A          45.909   1.487   9.187  0.00  0.00     0.084 A 
ATOM      4  C2  UNK A          45.380   1.655   7.908  0.00  0.00     0.096 A 
ATOM      5  C3  UNK A          43.184   1.201   8.672  0.00  0.00     0.123 A 
ATOM      6  C5  UNK A          43.567   1.005   9.947  0.00  0.00     0.152 A 
ATOM      7  C6  UNK A          45.002   1.143  10.292  0.00  0.00     0.223 A 
ATOM      8  C7  UNK A          47.279   1.644   9.409  0.00  0.00     0.085 A 
ATOM      9  C8  UNK A          46.220   1.979   6.842  0.00  0.00     0.075 A 
ATOM     10  C9  UNK A          47.589   2.137   7.060  0.00  0.00     0.071 A 
ATOM     11  C11 UNK A          48.117   1.969   8.342  0.00  0.00     0.074 A 
ENDROOT
BRANCH   5  12
ATOM     12  C4  UNK A          41.781   1.077   8.239  0.00  0.00     0.004 A 
ATOM     13  C10 UNK A          41.140  -0.161   8.290  0.00  0.00     0.053 A 
ATOM     14  C13 UNK A          39.812  -0.277   7.881  0.00  0.00     0.099 A 
ATOM     15  C15 UNK A          39.124   0.845   7.420  0.00  0.00     0.098 A 
ATOM     16  C14 UNK A          39.763   2.084   7.370  0.00  0.00     0.040 A 
ATOM     17  C12 UNK A          41.092   2.200   7.779  0.00  0.00     0.017 A 
BRANCH  14  18
ATOM     18  O6  UNK A          39.198  -1.492   7.934  0.00  0.00    -0.358 OA
ATOM     19  H9  UNK A          38.235  -1.376   7.878  0.00  0.00     0.217 HD
ENDBRANCH  14  18
BRANCH  15  20
ATOM     20  O7  UNK A          37.825   0.745   7.020  0.00  0.00    -0.358 OA
ATOM     21  H10 UNK A          37.789   0.589   6.063  0.00  0.00     0.217 HD
ENDBRANCH  15  20
ENDBRANCH   5  12
BRANCH   6  22
ATOM     22  O2  UNK A          42.689   0.663  10.953  0.00  0.00    -0.355 OA
ATOM     23  H6  UNK A          42.924  -0.206  11.316  0.00  0.00     0.218 HD
ENDBRANCH   6  22
BRANCH   8  24
ATOM     24  O3  UNK A          47.847   1.491  10.638  0.00  0.00    -0.360 OA
ATOM     25  H7  UNK A          47.204   1.128  11.266  0.00  0.00     0.217 HD
ENDBRANCH   8  24
BRANCH  10  26
ATOM     26  O5  UNK A          48.410   2.453   6.023  0.00  0.00    -0.361 OA
ATOM     27  H8  UNK A          48.195   1.884   5.264  0.00  0.00     0.217 HD
ENDBRANCH  10  26
TORSDOF 6
ENDMDL
MODEL 7
REMARK VINA RESULT:      -5.9      1.754      3.666
REMARK  6 active torsions:
REMARK  status: ('A' for Active; 'I' for Inactive)
REMARK    1  A    between atoms: O2_2  and  C5_12 
REMARK    2  A    between atoms: O3_3  and  C7_14 
REMARK    3  A    between atoms: O5_5  and  C9_16 
REMARK    4  A    between atoms: O6_6  and  C13_20 
REMARK    5  A    between atoms: O7_7  and  C15_22 
REMARK    6  A    between atoms: C3_10  and  C4_11 
ROOT
ATOM      1  O1  UNK A          41.649   3.133   9.038  0.00  0.00    -0.306 OA
ATOM      2  O4  UNK A          45.527   2.895   7.807  0.00  0.00    -0.284 OA
ATOM      3  C1  UNK A          43.880   4.089   8.999  0.00  0.00     0.084 A 
ATOM      4  C2  UNK A          42.541   4.113   9.386  0.00  0.00     0.096 A 
ATOM      5  C3  UNK A          42.102   2.066   8.278  0.00  0.00     0.123 A 
ATOM      6  C5  UNK A          43.365   1.928   7.833  0.00  0.00     0.152 A 
ATOM      7  C6  UNK A          44.364   2.967   8.181  0.00  0.00     0.223 A 
ATOM      8  C7  UNK A          44.743   5.118   9.383  0.00  0.00     0.085 A 
ATOM      9  C8  UNK A          42.058   5.169  10.160  0.00  0.00     0.075 A 
ATOM     10  C9  UNK A          42.917   6.198  10.546  0.00  0.00     0.071 A 
ATOM     11  C11 UNK A          44.258   6.172  10.157  0.00  0.00     0.074 A 
ENDROOT
BRANCH   5  12
ATOM     12  C4  UNK A          41.045   1.086   7.974  0.00  0.00     0.004 A 
ATOM     13  C10 UNK A          41.285  -0.278   8.146  0.00  0.00     0.053 A 
ATOM     14  C13 UNK A          40.284  -1.205   7.860  0.00  0.00     0.099 A 
ATOM     15  C15 UNK A          39.041  -0.769   7.400  0.00  0.00     0.098 A 
ATOM     16  C14 UNK A          38.800   0.594   7.228  0.00  0.00     0.040 A 
ATOM     17  C12 UNK A          39.801   1.522   7.515  0.00  0.00     0.017 A 
BRANCH  14  18
ATOM     18  O6  UNK A          40.531  -2.533   8.030  0.00  0.00    -0.358 OA
ATOM     19  H9  UNK A          40.598  -2.736   8.977  0.00  0.00     0.217 HD
ENDBRANCH  14  18
BRANCH  15  20
ATOM     20  O7  UNK A          38.054  -1.665   7.119  0.00  0.00    -0.358 OA
ATOM     21  H10 UNK A          37.832  -1.622   6.175  0.00  0.00     0.217 HD
ENDBRANCH  15  20
ENDBRANCH   5  12
BRANCH   6  22
ATOM     22  O2  UNK A          43.776   0.870   7.051  0.00  0.00    -0.355 OA
ATOM     23  H6  UNK A          44.060   1.194   6.181  0.00  0.00     0.218 HD
ENDBRANCH   6  22
BRANCH   8  24
ATOM     24  O3  UNK A          46.060   5.142   9.031  0.00  0.00    -0.360 OA
ATOM     25  H7  UNK A          46.459   4.267   9.148  0.00  0.00     0.217 HD
ENDBRANCH   8  24
BRANCH  10  26
ATOM     26  O5  UNK A          42.448   7.228  11.301  0.00  0.00    -0.361 OA
ATOM     27  H8  UNK A          41.541   7.439  11.019  0.00  0.00     0.217 HD
ENDBRANCH  10  26
TORSDOF 6
ENDMDL
MODEL 8
REMARK VINA RESULT:      -5.8      7.427     10.867
REMARK  6 active torsions:
REMARK  status: ('A' for Active; 'I' for Inactive)
REMARK    1  A    between atoms: O2_2  and  C5_12 
REMARK    2  A    between atoms: O3_3  and  C7_14 
REMARK    3  A    between atoms: O5_5  and  C9_16 
REMARK    4  A    between atoms: O6_6  and  C13_20 
REMARK    5  A    between atoms: O7_7  and  C15_22 
REMARK    6  A    between atoms: C3_10  and  C4_11 
ROOT
ATOM      1  O1  UNK A          37.929  -5.023   5.598  0.00  0.00    -0.306 OA
ATOM      2  O4  UNK A          37.372  -6.137   9.478  0.00  0.00    -0.284 OA
ATOM      3  C1  UNK A          37.902  -4.422   7.949  0.00  0.00     0.084 A 
ATOM      4  C2  UNK A          38.079  -4.104   6.604  0.00  0.00     0.096 A 
ATOM      5  C3  UNK A          37.572  -6.320   5.934  0.00  0.00     0.123 A 
ATOM      6  C5  UNK A          37.380  -6.756   7.192  0.00  0.00     0.152 A 
ATOM      7  C6  UNK A          37.536  -5.799   8.313  0.00  0.00     0.223 A 
ATOM      8  C7  UNK A          38.069  -3.443   8.932  0.00  0.00     0.085 A 
ATOM      9  C8  UNK A          38.428  -2.805   6.234  0.00  0.00     0.075 A 
ATOM     10  C9  UNK A          38.597  -1.825   7.212  0.00  0.00     0.071 A 
ATOM     11  C11 UNK A          38.418  -2.145   8.559  0.00  0.00     0.074 A 
ENDROOT
BRANCH   5  12
ATOM     12  C4  UNK A          37.444  -7.203   4.761  0.00  0.00     0.004 A 
ATOM     13  C10 UNK A          38.488  -8.061   4.415  0.00  0.00     0.053 A 
ATOM     14  C13 UNK A          38.365  -8.898   3.307  0.00  0.00     0.099 A 
ATOM     15  C15 UNK A          37.199  -8.875   2.541  0.00  0.00     0.098 A 
ATOM     16  C14 UNK A          36.155  -8.017   2.886  0.00  0.00     0.040 A 
ATOM     17  C12 UNK A          36.277  -7.181   3.996  0.00  0.00     0.017 A 
BRANCH  14  18
ATOM     18  O6  UNK A          39.392  -9.730   2.978  0.00  0.00    -0.358 OA
ATOM     19  H9  UNK A          39.042 -10.607   2.747  0.00  0.00     0.217 HD
ENDBRANCH  14  18
BRANCH  15  20
ATOM     20  O7  UNK A          37.067  -9.688   1.456  0.00  0.00    -0.358 OA
ATOM     21  H10 UNK A          36.157  -9.646   1.124  0.00  0.00     0.217 HD
ENDBRANCH  15  20
ENDBRANCH   5  12
BRANCH   6  22
ATOM     22  O2  UNK A          37.057  -8.062   7.494  0.00  0.00    -0.355 OA
ATOM     23  H6  UNK A          37.629  -8.385   8.210  0.00  0.00     0.218 HD
ENDBRANCH   6  22
BRANCH   8  24
ATOM     24  O3  UNK A          37.908  -3.701  10.261  0.00  0.00    -0.360 OA
ATOM     25  H7  UNK A          36.983  -3.913  10.456  0.00  0.00     0.217 HD
ENDBRANCH   8  24
BRANCH  10  26
ATOM     26  O5  UNK A          38.936  -0.558   6.854  0.00  0.00    -0.361 OA
ATOM     27  H8  UNK A          38.515   0.068   7.467  0.00  0.00     0.217 HD
ENDBRANCH  10  26
TORSDOF 6
ENDMDL
MODEL 9
REMARK VINA RESULT:      -5.8      1.777      7.065
REMARK  6 active torsions:
REMARK  status: ('A' for Active; 'I' for Inactive)
REMARK    1  A    between atoms: O2_2  and  C5_12 
REMARK    2  A    between atoms: O3_3  and  C7_14 
REMARK    3  A    between atoms: O5_5  and  C9_16 
REMARK    4  A    between atoms: O6_6  and  C13_20 
REMARK    5  A    between atoms: O7_7  and  C15_22 
REMARK    6  A    between atoms: C3_10  and  C4_11 
ROOT
ATOM      1  O1  UNK A          42.798   2.099   7.724  0.00  0.00    -0.306 OA
ATOM      2  O4  UNK A          42.263  -1.360   9.813  0.00  0.00    -0.284 OA
ATOM      3  C1  UNK A          41.327   0.299   8.422  0.00  0.00     0.084 A 
ATOM      4  C2  UNK A          41.574   1.483   7.729  0.00  0.00     0.096 A 
ATOM      5  C3  UNK A          43.838   1.511   8.427  0.00  0.00     0.123 A 
ATOM      6  C5  UNK A          43.730   0.376   9.142  0.00  0.00     0.152 A 
ATOM      7  C6  UNK A          42.423  -0.323   9.181  0.00  0.00     0.223 A 
ATOM      8  C7  UNK A          40.058  -0.283   8.392  0.00  0.00     0.085 A 
ATOM      9  C8  UNK A          40.551   2.093   7.004  0.00  0.00     0.075 A 
ATOM     10  C9  UNK A          39.282   1.515   6.971  0.00  0.00     0.071 A 
ATOM     11  C11 UNK A          39.037   0.329   7.665  0.00  0.00     0.074 A 
ENDROOT
BRANCH   5  12
ATOM     12  C4  UNK A          45.096   2.273   8.339  0.00  0.00     0.004 A 
ATOM     13  C10 UNK A          45.979   2.044   7.283  0.00  0.00     0.053 A 
ATOM     14  C13 UNK A          47.169   2.766   7.199  0.00  0.00     0.099 A 
ATOM     15  C15 UNK A          47.477   3.718   8.172  0.00  0.00     0.098 A 
ATOM     16  C14 UNK A          46.595   3.947   9.227  0.00  0.00     0.040 A 
ATOM     17  C12 UNK A          45.404   3.225   9.311  0.00  0.00     0.017 A 
BRANCH  14  18
ATOM     18  O6  UNK A          48.024   2.533   6.165  0.00  0.00    -0.358 OA
ATOM     19  H9  UNK A          48.137   3.344   5.643  0.00  0.00     0.217 HD
ENDBRANCH  14  18
BRANCH  15  20
ATOM     20  O7  UNK A          48.636   4.431   8.099  0.00  0.00    -0.358 OA
ATOM     21  H10 UNK A          48.960   4.620   8.994  0.00  0.00     0.217 HD
ENDBRANCH  15  20
ENDBRANCH   5  12
BRANCH   6  22
ATOM     22  O2  UNK A          44.776  -0.165   9.858  0.00  0.00    -0.355 OA
ATOM     23  H6  UNK A          45.181  -0.889   9.354  0.00  0.00     0.218 HD
ENDBRANCH   6  22
BRANCH   8  24
ATOM     24  O3  UNK A          39.764  -1.439   9.051  0.00  0.00    -0.360 OA
ATOM     25  H7  UNK A          39.263  -1.252   9.859  0.00  0.00     0.217 HD
ENDBRANCH   8  24
BRANCH  10  26
ATOM     26  O5  UNK A          38.283   2.108   6.264  0.00  0.00    -0.361 OA
ATOM     27  H8  UNK A          38.015   2.925   6.719  0.00  0.00     0.217 HD
ENDBRANCH  10  26
TORSDOF 6
ENDMDL
MODEL 10
REMARK VINA RESULT:      -5.8      2.344      7.124
REMARK  6 active torsions:
REMARK  status: ('A' for Active; 'I' for Inactive)
REMARK    1  A    between atoms: O2_2  and  C5_12 
REMARK    2  A    between atoms: O3_3  and  C7_14 
REMARK    3  A    between atoms: O5_5  and  C9_16 
REMARK    4  A    between atoms: O6_6  and  C13_20 
REMARK    5  A    between atoms: O7_7  and  C15_22 
REMARK    6  A    between atoms: C3_10  and  C4_11 
ROOT
ATOM      1  O1  UNK A          43.877  -0.127   9.209  0.00  0.00    -0.306 OA
ATOM      2  O4  UNK A          40.938   2.019   7.374  0.00  0.00    -0.284 OA
ATOM      3  C1  UNK A          41.525   0.141   8.674  0.00  0.00     0.084 A 
ATOM      4  C2  UNK A          42.575  -0.548   9.278  0.00  0.00     0.096 A 
ATOM      5  C3  UNK A          44.159   1.043   8.520  0.00  0.00     0.123 A 
ATOM      6  C5  UNK A          43.240   1.795   7.887  0.00  0.00     0.152 A 
ATOM      7  C6  UNK A          41.819   1.375   7.930  0.00  0.00     0.223 A 
ATOM      8  C7  UNK A          40.217  -0.338   8.777  0.00  0.00     0.085 A 
ATOM      9  C8  UNK A          42.322  -1.723   9.987  0.00  0.00     0.075 A 
ATOM     10  C9  UNK A          41.017  -2.203  10.092  0.00  0.00     0.071 A 
ATOM     11  C11 UNK A          39.967  -1.511   9.487  0.00  0.00     0.074 A 
ENDROOT
BRANCH   5  12
ATOM     12  C4  UNK A          45.593   1.381   8.523  0.00  0.00     0.004 A 
ATOM     13  C10 UNK A          46.243   1.681   7.326  0.00  0.00     0.053 A 
ATOM     14  C13 UNK A          47.600   2.003   7.330  0.00  0.00     0.099 A 
ATOM     15  C15 UNK A          48.308   2.023   8.532  0.00  0.00     0.098 A 
ATOM     16  C14 UNK A          47.659   1.723   9.729  0.00  0.00     0.040 A 
ATOM     17  C12 UNK A          46.301   1.402   9.726  0.00  0.00     0.017 A 
BRANCH  14  18
ATOM     18  O6  UNK A          48.224   2.293   6.155  0.00  0.00    -0.358 OA
ATOM     19  H9  UNK A          49.182   2.359   6.300  0.00  0.00     0.217 HD
ENDBRANCH  14  18
BRANCH  15  20
ATOM     20  O7  UNK A          49.634   2.338   8.549  0.00  0.00    -0.358 OA
ATOM     21  H10 UNK A          49.766   3.220   8.167  0.00  0.00     0.217 HD
ENDBRANCH  15  20
ENDBRANCH   5  12
BRANCH   6  22
ATOM     22  O2  UNK A          43.558   2.936   7.182  0.00  0.00    -0.355 OA
ATOM     23  H6  UNK A          44.435   3.255   7.449  0.00  0.00     0.218 HD
ENDBRANCH   6  22
BRANCH   8  24
ATOM     24  O3  UNK A          39.155   0.298   8.205  0.00  0.00    -0.360 OA
ATOM     25  H7  UNK A          38.939  -0.103   7.350  0.00  0.00     0.217 HD
ENDBRANCH   8  24
BRANCH  10  26
ATOM     26  O5  UNK A          40.768  -3.348  10.784  0.00  0.00    -0.361 OA
ATOM     27  H8  UNK A          41.007  -4.111  10.230  0.00  0.00     0.217 HD
ENDBRANCH  10  26
TORSDOF 6
ENDMDL
MODEL 11
REMARK VINA RESULT:      -5.7      5.913      9.353
REMARK  6 active torsions:
REMARK  status: ('A' for Active; 'I' for Inactive)
REMARK    1  A    between atoms: O2_2  and  C5_12 
REMARK    2  A    between atoms: O3_3  and  C7_14 
REMARK    3  A    between atoms: O5_5  and  C9_16 
REMARK    4  A    between atoms: O6_6  and  C13_20 
REMARK    5  A    between atoms: O7_7  and  C15_22 
REMARK    6  A    between atoms: C3_10  and  C4_11 
ROOT
ATOM      1  O1  UNK A          38.770  -3.939   6.469  0.00  0.00    -0.306 OA
ATOM      2  O4  UNK A          35.362  -1.842   7.240  0.00  0.00    -0.284 OA
ATOM      3  C1  UNK A          37.715  -1.941   7.355  0.00  0.00     0.084 A 
ATOM      4  C2  UNK A          38.843  -2.708   7.066  0.00  0.00     0.096 A 
ATOM      5  C3  UNK A          37.522  -4.437   6.126  0.00  0.00     0.123 A 
ATOM      6  C5  UNK A          36.359  -3.801   6.357  0.00  0.00     0.152 A 
ATOM      7  C6  UNK A          36.387  -2.469   7.006  0.00  0.00     0.223 A 
ATOM      8  C7  UNK A          37.850  -0.693   7.967  0.00  0.00     0.085 A 
ATOM      9  C8  UNK A          40.113  -2.231   7.390  0.00  0.00     0.075 A 
ATOM     10  C9  UNK A          40.252  -0.984   8.001  0.00  0.00     0.071 A 
ATOM     11  C11 UNK A          39.122  -0.217   8.289  0.00  0.00     0.074 A 
ENDROOT
BRANCH   5  12
ATOM     12  C4  UNK A          37.587  -5.765   5.492  0.00  0.00     0.004 A 
ATOM     13  C10 UNK A          37.974  -6.878   6.240  0.00  0.00     0.053 A 
ATOM     14  C13 UNK A          38.033  -8.135   5.640  0.00  0.00     0.099 A 
ATOM     15  C15 UNK A          37.707  -8.280   4.291  0.00  0.00     0.098 A 
ATOM     16  C14 UNK A          37.320  -7.169   3.544  0.00  0.00     0.040 A 
ATOM     17  C12 UNK A          37.260  -5.911   4.144  0.00  0.00     0.017 A 
BRANCH  14  18
ATOM     18  O6  UNK A          38.414  -9.214   6.379  0.00  0.00    -0.358 OA
ATOM     19  H9  UNK A          37.690  -9.480   6.969  0.00  0.00     0.217 HD
ENDBRANCH  14  18
BRANCH  15  20
ATOM     20  O7  UNK A          37.760  -9.504   3.694  0.00  0.00    -0.358 OA
ATOM     21  H10 UNK A          38.464  -9.513   3.028  0.00  0.00     0.217 HD
ENDBRANCH  15  20
ENDBRANCH   5  12
BRANCH   6  22
ATOM     22  O2  UNK A          35.131  -4.338   6.033  0.00  0.00    -0.355 OA
ATOM     23  H6  UNK A          35.202  -4.854   5.214  0.00  0.00     0.218 HD
ENDBRANCH   6  22
BRANCH   8  24
ATOM     24  O3  UNK A          36.781   0.096   8.271  0.00  0.00    -0.360 OA
ATOM     25  H7  UNK A          36.003  -0.447   8.469  0.00  0.00     0.217 HD
ENDBRANCH   8  24
BRANCH  10  26
ATOM     26  O5  UNK A          41.489  -0.517   8.317  0.00  0.00    -0.361 OA
ATOM     27  H8  UNK A          41.845  -0.025   7.557  0.00  0.00     0.217 HD
ENDBRANCH  10  26
TORSDOF 6
ENDMDL
MODEL 12
REMARK VINA RESULT:      -5.7      2.195      6.693
REMARK  6 active torsions:
REMARK  status: ('A' for Active; 'I' for Inactive)
REMARK    1  A    between atoms: O2_2  and  C5_12 
REMARK    2  A    between atoms: O3_3  and  C7_14 
REMARK    3  A    between atoms: O5_5  and  C9_16 
REMARK    4  A    between atoms: O6_6  and  C13_20 
REMARK    5  A    between atoms: O7_7  and  C15_22 
REMARK    6  A    between atoms: C3_10  and  C4_11 
ROOT
ATOM      1  O1  UNK A          41.486   3.057   8.737  0.00  0.00    -0.306 OA
ATOM      2  O4  UNK A          43.504  -0.374   9.612  0.00  0.00    -0.284 OA
ATOM      3  C1  UNK A          41.564   0.631   8.724  0.00  0.00     0.084 A 
ATOM      4  C2  UNK A          40.926   1.839   8.451  0.00  0.00     0.096 A 
ATOM      5  C3  UNK A          42.748   3.087   9.311  0.00  0.00     0.123 A 
ATOM      6  C5  UNK A          43.466   1.994   9.631  0.00  0.00     0.152 A 
ATOM      7  C6  UNK A          42.898   0.655   9.345  0.00  0.00     0.223 A 
ATOM      8  C7  UNK A          40.944  -0.581   8.411  0.00  0.00     0.085 A 
ATOM      9  C8  UNK A          39.660   1.842   7.865  0.00  0.00     0.075 A 
ATOM     10  C9  UNK A          39.037   0.634   7.551  0.00  0.00     0.071 A 
ATOM     11  C11 UNK A          39.678  -0.575   7.824  0.00  0.00     0.074 A 
ENDROOT
BRANCH   5  12
ATOM     12  C4  UNK A          43.232   4.455   9.565  0.00  0.00     0.004 A 
ATOM     13  C10 UNK A          42.550   5.282  10.459  0.00  0.00     0.053 A 
ATOM     14  C13 UNK A          43.010   6.576  10.701  0.00  0.00     0.099 A 
ATOM     15  C15 UNK A          44.150   7.045  10.047  0.00  0.00     0.098 A 
ATOM     16  C14 UNK A          44.831   6.218   9.154  0.00  0.00     0.040 A 
ATOM     17  C12 UNK A          44.372   4.923   8.913  0.00  0.00     0.017 A 
BRANCH  14  18
ATOM     18  O6  UNK A          42.336   7.375  11.574  0.00  0.00    -0.358 OA
ATOM     19  H9  UNK A          42.329   6.966  12.454  0.00  0.00     0.217 HD
ENDBRANCH  14  18
BRANCH  15  20
ATOM     20  O7  UNK A          44.609   8.307  10.276  0.00  0.00    -0.358 OA
ATOM     21  H10 UNK A          43.882   8.869  10.587  0.00  0.00     0.217 HD
ENDBRANCH  15  20
ENDBRANCH   5  12
BRANCH   6  22
ATOM     22  O2  UNK A          44.705   2.058  10.231  0.00  0.00    -0.355 OA
ATOM     23  H6  UNK A          45.396   1.845   9.584  0.00  0.00     0.218 HD
ENDBRANCH   6  22
BRANCH   8  24
ATOM     24  O3  UNK A          41.524  -1.789   8.657  0.00  0.00    -0.360 OA
ATOM     25  H7  UNK A          42.437  -1.800   8.332  0.00  0.00     0.217 HD
ENDBRANCH   8  24
BRANCH  10  26
ATOM     26  O5  UNK A          37.803   0.635   6.978  0.00  0.00    -0.361 OA
ATOM     27  H8  UNK A          37.200   1.165   7.528  0.00  0.00     0.217 HD
ENDBRANCH  10  26
TORSDOF 6
ENDMDL
MODEL 13
REMARK VINA RESULT:      -5.7      3.374      5.142
REMARK  6 active torsions:
REMARK  status: ('A' for Active; 'I' for Inactive)
REMARK    1  A    between atoms: O2_2  and  C5_12 
REMARK    2  A    between atoms: O3_3  and  C7_14 
REMARK    3  A    between atoms: O5_5  and  C9_16 
REMARK    4  A    between atoms: O6_6  and  C13_20 
REMARK    5  A    between atoms: O7_7  and  C15_22 
REMARK    6  A    between atoms: C3_10  and  C4_11 
ROOT
ATOM      1  O1  UNK A          40.826  -1.427   8.577  0.00  0.00    -0.306 OA
ATOM      2  O4  UNK A          39.211   2.276   8.034  0.00  0.00    -0.284 OA
ATOM      3  C1  UNK A          41.063   0.985   8.717  0.00  0.00     0.084 A 
ATOM      4  C2  UNK A          41.557  -0.308   8.880  0.00  0.00     0.096 A 
ATOM      5  C3  UNK A          39.546  -1.264   8.072  0.00  0.00     0.123 A 
ATOM      6  C5  UNK A          38.949  -0.073   7.874  0.00  0.00     0.152 A 
ATOM      7  C6  UNK A          39.700   1.165   8.194  0.00  0.00     0.223 A 
ATOM      8  C7  UNK A          41.854   2.089   9.045  0.00  0.00     0.085 A 
ATOM      9  C8  UNK A          42.846  -0.504   9.377  0.00  0.00     0.075 A 
ATOM     10  C9  UNK A          43.639   0.595   9.706  0.00  0.00     0.071 A 
ATOM     11  C11 UNK A          43.143   1.889   9.540  0.00  0.00     0.074 A 
ENDROOT
BRANCH   5  12
ATOM     12  C4  UNK A          38.872  -2.543   7.787  0.00  0.00     0.004 A 
ATOM     13  C10 UNK A          38.913  -3.083   6.502  0.00  0.00     0.053 A 
ATOM     14  C13 UNK A          38.277  -4.294   6.233  0.00  0.00     0.099 A 
ATOM     15  C15 UNK A          37.597  -4.966   7.250  0.00  0.00     0.098 A 
ATOM     16  C14 UNK A          37.556  -4.426   8.536  0.00  0.00     0.040 A 
ATOM     17  C12 UNK A          38.194  -3.215   8.805  0.00  0.00     0.017 A 
BRANCH  14  18
ATOM     18  O6  UNK A          38.322  -4.811   4.974  0.00  0.00    -0.358 OA
ATOM     19  H9  UNK A          37.422  -5.013   4.669  0.00  0.00     0.217 HD
ENDBRANCH  14  18
BRANCH  15  20
ATOM     20  O7  UNK A          36.973  -6.151   7.001  0.00  0.00    -0.358 OA
ATOM     21  H10 UNK A          36.124  -5.987   6.561  0.00  0.00     0.217 HD
ENDBRANCH  15  20
ENDBRANCH   5  12
BRANCH   6  22
ATOM     22  O2  UNK A          37.661   0.054   7.401  0.00  0.00    -0.355 OA
ATOM     23  H6  UNK A          37.314   0.934   7.622  0.00  0.00     0.218 HD
ENDBRANCH   6  22
BRANCH   8  24
ATOM     24  O3  UNK A          41.419   3.372   8.904  0.00  0.00    -0.360 OA
ATOM     25  H7  UNK A          42.083   3.995   9.237  0.00  0.00     0.217 HD
ENDBRANCH   8  24
BRANCH  10  26
ATOM     26  O5  UNK A          44.896   0.406  10.189  0.00  0.00    -0.361 OA
ATOM     27  H8  UNK A          45.492   0.197   9.449  0.00  0.00     0.217 HD
ENDBRANCH  10  26
TORSDOF 6
ENDMDL
MODEL 14
REMARK VINA RESULT:      -5.6      9.565     13.329
REMARK  6 active torsions:
REMARK  status: ('A' for Active; 'I' for Inactive)
REMARK    1  A    between atoms: O2_2  and  C5_12 
REMARK    2  A    between atoms: O3_3  and  C7_14 
REMARK    3  A    between atoms: O5_5  and  C9_16 
REMARK    4  A    between atoms: O6_6  and  C13_20 
REMARK    5  A    between atoms: O7_7  and  C15_22 
REMARK    6  A    between atoms: C3_10  and  C4_11 
ROOT
ATOM      1  O1  UNK A          37.955  -8.373   5.914  0.00  0.00    -0.306 OA
ATOM      2  O4  UNK A          37.320 -10.032   2.246  0.00  0.00    -0.284 OA
ATOM      3  C1  UNK A          38.160 -10.286   4.435  0.00  0.00     0.084 A 
ATOM      4  C2  UNK A          38.349  -9.662   5.666  0.00  0.00     0.096 A 
ATOM      5  C3  UNK A          37.329  -7.666   4.899  0.00  0.00     0.123 A 
ATOM      6  C5  UNK A          37.094  -8.149   3.665  0.00  0.00     0.152 A 
ATOM      7  C6  UNK A          37.508  -9.537   3.350  0.00  0.00     0.223 A 
ATOM      8  C7  UNK A          38.585 -11.603   4.239  0.00  0.00     0.085 A 
ATOM      9  C8  UNK A          38.968 -10.351   6.710  0.00  0.00     0.075 A 
ATOM     10  C9  UNK A          39.393 -11.666   6.518  0.00  0.00     0.071 A 
ATOM     11  C11 UNK A          39.201 -12.290   5.285  0.00  0.00     0.074 A 
ENDROOT
BRANCH   5  12
ATOM     12  C4  UNK A          36.957  -6.297   5.298  0.00  0.00     0.004 A 
ATOM     13  C10 UNK A          37.933  -5.304   5.383  0.00  0.00     0.053 A 
ATOM     14  C13 UNK A          37.580  -4.008   5.758  0.00  0.00     0.099 A 
ATOM     15  C15 UNK A          36.250  -3.705   6.051  0.00  0.00     0.098 A 
ATOM     16  C14 UNK A          35.273  -4.697   5.966  0.00  0.00     0.040 A 
ATOM     17  C12 UNK A          35.626  -5.993   5.589  0.00  0.00     0.017 A 
BRANCH  14  18
ATOM     18  O6  UNK A          38.542  -3.048   5.839  0.00  0.00    -0.358 OA
ATOM     19  H9  UNK A          39.106  -3.212   6.612  0.00  0.00     0.217 HD
ENDBRANCH  14  18
BRANCH  15  20
ATOM     20  O7  UNK A          35.893  -2.442   6.417  0.00  0.00    -0.358 OA
ATOM     21  H10 UNK A          36.608  -1.823   6.200  0.00  0.00     0.217 HD
ENDBRANCH  15  20
ENDBRANCH   5  12
BRANCH   6  22
ATOM     22  O2  UNK A          36.498  -7.408   2.668  0.00  0.00    -0.355 OA
ATOM     23  H6  UNK A          36.335  -6.503   2.981  0.00  0.00     0.218 HD
ENDBRANCH   6  22
BRANCH   8  24
ATOM     24  O3  UNK A          38.423 -12.259   3.056  0.00  0.00    -0.360 OA
ATOM     25  H7  UNK A          39.257 -12.665   2.776  0.00  0.00     0.217 HD
ENDBRANCH   8  24
BRANCH  10  26
ATOM     26  O5  UNK A          39.995 -12.340   7.535  0.00  0.00    -0.361 OA
ATOM     27  H8  UNK A          39.357 -12.455   8.260  0.00  0.00     0.217 HD
ENDBRANCH  10  26
TORSDOF 6
ENDMDL
MODEL 15
REMARK VINA RESULT:      -5.6      2.305      2.851
REMARK  6 active torsions:
REMARK  status: ('A' for Active; 'I' for Inactive)
REMARK    1  A    between atoms: O2_2  and  C5_12 
REMARK    2  A    between atoms: O3_3  and  C7_14 
REMARK    3  A    between atoms: O5_5  and  C9_16 
REMARK    4  A    between atoms: O6_6  and  C13_20 
REMARK    5  A    between atoms: O7_7  and  C15_22 
REMARK    6  A    between atoms: C3_10  and  C4_11 
ROOT
ATOM      1  O1  UNK A          44.383   0.847   8.104  0.00  0.00    -0.306 OA
ATOM      2  O4  UNK A          44.360   4.008  10.675  0.00  0.00    -0.284 OA
ATOM      3  C1  UNK A          45.424   2.893   8.890  0.00  0.00     0.084 A 
ATOM      4  C2  UNK A          45.376   1.790   8.041  0.00  0.00     0.096 A 
ATOM      5  C3  UNK A          43.377   1.006   9.044  0.00  0.00     0.123 A 
ATOM      6  C5  UNK A          43.312   2.020   9.926  0.00  0.00     0.152 A 
ATOM      7  C6  UNK A          44.367   3.062   9.899  0.00  0.00     0.223 A 
ATOM      8  C7  UNK A          46.462   3.822   8.781  0.00  0.00     0.085 A 
ATOM      9  C8  UNK A          46.369   1.607   7.078  0.00  0.00     0.075 A 
ATOM     10  C9  UNK A          47.407   2.532   6.965  0.00  0.00     0.071 A 
ATOM     11  C11 UNK A          47.452   3.638   7.817  0.00  0.00     0.074 A 
ENDROOT
BRANCH   5  12
ATOM     12  C4  UNK A          42.376  -0.074   9.004  0.00  0.00     0.004 A 
ATOM     13  C10 UNK A          42.573  -1.238   9.748  0.00  0.00     0.053 A 
ATOM     14  C13 UNK A          41.625  -2.259   9.711  0.00  0.00     0.099 A 
ATOM     15  C15 UNK A          40.479  -2.118   8.928  0.00  0.00     0.098 A 
ATOM     16  C14 UNK A          40.281  -0.955   8.184  0.00  0.00     0.040 A 
ATOM     17  C12 UNK A          41.230   0.067   8.221  0.00  0.00     0.017 A 
BRANCH  14  18
ATOM     18  O6  UNK A          41.829  -3.390  10.441  0.00  0.00    -0.358 OA
ATOM     19  H9  UNK A          41.055  -3.564  11.000  0.00  0.00     0.217 HD
ENDBRANCH  14  18
BRANCH  15  20
ATOM     20  O7  UNK A          39.544  -3.109   8.885  0.00  0.00    -0.358 OA
ATOM     21  H10 UNK A          39.034  -3.042   8.063  0.00  0.00     0.217 HD
ENDBRANCH  15  20
ENDBRANCH   5  12
BRANCH   6  22
ATOM     22  O2  UNK A          42.315   2.133  10.871  0.00  0.00    -0.355 OA
ATOM     23  H6  UNK A          41.466   1.854  10.490  0.00  0.00     0.218 HD
ENDBRANCH   6  22
BRANCH   8  24
ATOM     24  O3  UNK A          46.556   4.918   9.586  0.00  0.00    -0.360 OA
ATOM     25  H7  UNK A          46.792   4.657  10.489  0.00  0.00     0.217 HD
ENDBRANCH   8  24
BRANCH  10  26
ATOM     26  O5  UNK A          48.375   2.356   6.027  0.00  0.00    -0.361 OA
ATOM     27  H8  UNK A          48.286   3.047   5.347  0.00  0.00     0.217 HD
ENDBRANCH  10  26
TORSDOF 6
ENDMDL
MODEL 16
REMARK VINA RESULT:      -5.5      2.089      2.832
REMARK  6 active torsions:
REMARK  status: ('A' for Active; 'I' for Inactive)
REMARK    1  A    between atoms: O2_2  and  C5_12 
REMARK    2  A    between atoms: O3_3  and  C7_14 
REMARK    3  A    between atoms: O5_5  and  C9_16 
REMARK    4  A    between atoms: O6_6  and  C13_20 
REMARK    5  A    between atoms: O7_7  and  C15_22 
REMARK    6  A    between atoms: C3_10  and  C4_11 
ROOT
ATOM      1  O1  UNK A          42.327   0.293   8.229  0.00  0.00    -0.306 OA
ATOM      2  O4  UNK A          40.971   3.799   9.804  0.00  0.00    -0.284 OA
ATOM      3  C1  UNK A          42.770   2.591   8.872  0.00  0.00     0.084 A 
ATOM      4  C2  UNK A          43.172   1.366   8.344  0.00  0.00     0.096 A 
ATOM      5  C3  UNK A          41.012   0.439   8.645  0.00  0.00     0.123 A 
ATOM      6  C5  UNK A          40.501   1.563   9.179  0.00  0.00     0.152 A 
ATOM      7  C6  UNK A          41.380   2.748   9.327  0.00  0.00     0.223 A 
ATOM      8  C7  UNK A          43.676   3.650   8.965  0.00  0.00     0.085 A 
ATOM      9  C8  UNK A          44.486   1.192   7.907  0.00  0.00     0.075 A 
ATOM     10  C9  UNK A          45.394   2.247   7.999  0.00  0.00     0.071 A 
ATOM     11  C11 UNK A          44.989   3.473   8.527  0.00  0.00     0.074 A 
ENDROOT
BRANCH   5  12
ATOM     12  C4  UNK A          40.214  -0.787   8.466  0.00  0.00     0.004 A 
ATOM     13  C10 UNK A          39.582  -1.038   7.248  0.00  0.00     0.053 A 
ATOM     14  C13 UNK A          38.828  -2.198   7.079  0.00  0.00     0.099 A 
ATOM     15  C15 UNK A          38.702  -3.108   8.130  0.00  0.00     0.098 A 
ATOM     16  C14 UNK A          39.334  -2.857   9.348  0.00  0.00     0.040 A 
ATOM     17  C12 UNK A          40.089  -1.697   9.517  0.00  0.00     0.017 A 
BRANCH  14  18
ATOM     18  O6  UNK A          38.214  -2.432   5.886  0.00  0.00    -0.358 OA
ATOM     19  H9  UNK A          38.863  -2.372   5.166  0.00  0.00     0.217 HD
ENDBRANCH  14  18
BRANCH  15  20
ATOM     20  O7  UNK A          37.969  -4.246   7.977  0.00  0.00    -0.358 OA
ATOM     21  H10 UNK A          37.520  -4.460   8.809  0.00  0.00     0.217 HD
ENDBRANCH  15  20
ENDBRANCH   5  12
BRANCH   6  22
ATOM     22  O2  UNK A          39.197   1.665   9.613  0.00  0.00    -0.355 OA
ATOM     23  H6  UNK A          39.075   1.137  10.418  0.00  0.00     0.218 HD
ENDBRANCH   6  22
BRANCH   8  24
ATOM     24  O3  UNK A          43.334   4.868   9.473  0.00  0.00    -0.360 OA
ATOM     25  H7  UNK A          43.340   5.541   8.776  0.00  0.00     0.217 HD
ENDBRANCH   8  24
BRANCH  10  26
ATOM     26  O5  UNK A          46.675   2.079   7.574  0.00  0.00    -0.361 OA
ATOM     27  H8  UNK A          47.282   2.334   8.290  0.00  0.00     0.217 HD
ENDBRANCH  10  26
TORSDOF 6
ENDMDL
MODEL 17
REMARK VINA RESULT:      -5.5      2.646      6.834
REMARK  6 active torsions:
REMARK  status: ('A' for Active; 'I' for Inactive)
REMARK    1  A    between atoms: O2_2  and  C5_12 
REMARK    2  A    between atoms: O3_3  and  C7_14 
REMARK    3  A    between atoms: O5_5  and  C9_16 
REMARK    4  A    between atoms: O6_6  and  C13_20 
REMARK    5  A    between atoms: O7_7  and  C15_22 
REMARK    6  A    between atoms: C3_10  and  C4_11 
ROOT
ATOM      1  O1  UNK A          41.968   1.126  10.588  0.00  0.00    -0.306 OA
ATOM      2  O4  UNK A          39.608  -0.196   7.540  0.00  0.00    -0.284 OA
ATOM      3  C1  UNK A          40.521  -0.597   9.677  0.00  0.00     0.084 A 
ATOM      4  C2  UNK A          41.341  -0.089  10.683  0.00  0.00     0.096 A 
ATOM      5  C3  UNK A          41.765   1.888   9.448  0.00  0.00     0.123 A 
ATOM      6  C5  UNK A          41.006   1.510   8.403  0.00  0.00     0.152 A 
ATOM      7  C6  UNK A          40.313   0.200   8.458  0.00  0.00     0.223 A 
ATOM      8  C7  UNK A          39.910  -1.844   9.828  0.00  0.00     0.085 A 
ATOM      9  C8  UNK A          41.557  -0.828  11.847  0.00  0.00     0.075 A 
ATOM     10  C9  UNK A          40.948  -2.074  12.001  0.00  0.00     0.071 A 
ATOM     11  C11 UNK A          40.126  -2.580  10.993  0.00  0.00     0.074 A 
ENDROOT
BRANCH   5  12
ATOM     12  C4  UNK A          42.493   3.168   9.475  0.00  0.00     0.004 A 
ATOM     13  C10 UNK A          41.889   4.305  10.014  0.00  0.00     0.053 A 
ATOM     14  C13 UNK A          42.580   5.516  10.040  0.00  0.00     0.099 A 
ATOM     15  C15 UNK A          43.874   5.592   9.526  0.00  0.00     0.098 A 
ATOM     16  C14 UNK A          44.479   4.457   8.987  0.00  0.00     0.040 A 
ATOM     17  C12 UNK A          43.789   3.245   8.961  0.00  0.00     0.017 A 
BRANCH  14  18
ATOM     18  O6  UNK A          41.979   6.619  10.568  0.00  0.00    -0.358 OA
ATOM     19  H9  UNK A          41.835   7.279   9.871  0.00  0.00     0.217 HD
ENDBRANCH  14  18
BRANCH  15  20
ATOM     20  O7  UNK A          44.559   6.770   9.548  0.00  0.00    -0.358 OA
ATOM     21  H10 UNK A          45.411   6.662   9.096  0.00  0.00     0.217 HD
ENDBRANCH  15  20
ENDBRANCH   5  12
BRANCH   6  22
ATOM     22  O2  UNK A          40.851   2.278   7.269  0.00  0.00    -0.355 OA
ATOM     23  H6  UNK A          41.151   1.780   6.490  0.00  0.00     0.218 HD
ENDBRANCH   6  22
BRANCH   8  24
ATOM     24  O3  UNK A          39.099  -2.385   8.875  0.00  0.00    -0.360 OA
ATOM     25  H7  UNK A          38.544  -1.701   8.473  0.00  0.00     0.217 HD
ENDBRANCH   8  24
BRANCH  10  26
ATOM     26  O5  UNK A          41.156  -2.795  13.135  0.00  0.00    -0.361 OA
ATOM     27  H8  UNK A          41.693  -3.577  12.919  0.00  0.00     0.217 HD
ENDBRANCH  10  26
TORSDOF 6
ENDMDL
MODEL 18
REMARK VINA RESULT:      -5.5      2.655      7.480
REMARK  6 active torsions:
REMARK  status: ('A' for Active; 'I' for Inactive)
REMARK    1  A    between atoms: O2_2  and  C5_12 
REMARK    2  A    between atoms: O3_3  and  C7_14 
REMARK    3  A    between atoms: O5_5  and  C9_16 
REMARK    4  A    between atoms: O6_6  and  C13_20 
REMARK    5  A    between atoms: O7_7  and  C15_22 
REMARK    6  A    between atoms: C3_10  and  C4_11 
ROOT
ATOM      1  O1  UNK A          40.743  -1.210   7.681  0.00  0.00    -0.306 OA
ATOM      2  O4  UNK A          37.617   0.693   9.476  0.00  0.00    -0.284 OA
ATOM      3  C1  UNK A          38.353  -1.059   8.079  0.00  0.00     0.084 A 
ATOM      4  C2  UNK A          39.463  -1.664   7.493  0.00  0.00     0.096 A 
ATOM      5  C3  UNK A          40.941  -0.110   8.501  0.00  0.00     0.123 A 
ATOM      6  C5  UNK A          39.956   0.569   9.118  0.00  0.00     0.152 A 
ATOM      7  C6  UNK A          38.555   0.117   8.939  0.00  0.00     0.223 A 
ATOM      8  C7  UNK A          37.071  -1.565   7.849  0.00  0.00     0.085 A 
ATOM      9  C8  UNK A          39.297  -2.779   6.671  0.00  0.00     0.075 A 
ATOM     10  C9  UNK A          38.019  -3.287   6.439  0.00  0.00     0.071 A 
ATOM     11  C11 UNK A          36.908  -2.680   7.028  0.00  0.00     0.074 A 
ENDROOT
BRANCH   5  12
ATOM     12  C4  UNK A          42.359   0.272   8.619  0.00  0.00     0.004 A 
ATOM     13  C10 UNK A          42.935   1.121   7.673  0.00  0.00     0.053 A 
ATOM     14  C13 UNK A          44.276   1.483   7.786  0.00  0.00     0.099 A 
ATOM     15  C15 UNK A          45.044   0.995   8.843  0.00  0.00     0.098 A 
ATOM     16  C14 UNK A          44.469   0.146   9.789  0.00  0.00     0.040 A 
ATOM     17  C12 UNK A          43.127  -0.216   9.677  0.00  0.00     0.017 A 
BRANCH  14  18
ATOM     18  O6  UNK A          44.828   2.312   6.856  0.00  0.00    -0.358 OA
ATOM     19  H9  UNK A          44.289   2.304   6.048  0.00  0.00     0.217 HD
ENDBRANCH  14  18
BRANCH  15  20
ATOM     20  O7  UNK A          46.356   1.343   8.965  0.00  0.00    -0.358 OA
ATOM     21  H10 UNK A          46.516   2.182   8.505  0.00  0.00     0.217 HD
ENDBRANCH  15  20
ENDBRANCH   5  12
BRANCH   6  22
ATOM     22  O2  UNK A          40.183   1.680   9.901  0.00  0.00    -0.355 OA
ATOM     23  H6  UNK A          39.500   2.348   9.732  0.00  0.00     0.218 HD
ENDBRANCH   6  22
BRANCH   8  24
ATOM     24  O3  UNK A          35.954  -1.011   8.397  0.00  0.00    -0.360 OA
ATOM     25  H7  UNK A          35.907  -0.065   8.192  0.00  0.00     0.217 HD
ENDBRANCH   8  24
BRANCH  10  26
ATOM     26  O5  UNK A          37.855  -4.375   5.639  0.00  0.00    -0.361 OA
ATOM     27  H8  UNK A          36.994  -4.311   5.190  0.00  0.00     0.217 HD
ENDBRANCH  10  26
TORSDOF 6
ENDMDL
MODEL 19
REMARK VINA RESULT:      -5.5      2.536      3.631
REMARK  6 active torsions:
REMARK  status: ('A' for Active; 'I' for Inactive)
REMARK    1  A    between atoms: O2_2  and  C5_12 
REMARK    2  A    between atoms: O3_3  and  C7_14 
REMARK    3  A    between atoms: O5_5  and  C9_16 
REMARK    4  A    between atoms: O6_6  and  C13_20 
REMARK    5  A    between atoms: O7_7  and  C15_22 
REMARK    6  A    between atoms: C3_10  and  C4_11 
ROOT
ATOM      1  O1  UNK A          43.147   1.224   9.931  0.00  0.00    -0.306 OA
ATOM      2  O4  UNK A          46.357   1.572   7.443  0.00  0.00    -0.284 OA
ATOM      3  C1  UNK A          45.550   1.426   9.655  0.00  0.00     0.084 A 
ATOM      4  C2  UNK A          44.412   1.307  10.451  0.00  0.00     0.096 A 
ATOM      5  C3  UNK A          42.995   1.246   8.553  0.00  0.00     0.123 A 
ATOM      6  C5  UNK A          44.008   1.365   7.676  0.00  0.00     0.152 A 
ATOM      7  C6  UNK A          45.394   1.463   8.193  0.00  0.00     0.223 A 
ATOM      8  C7  UNK A          46.815   1.508  10.241  0.00  0.00     0.085 A 
ATOM      9  C8  UNK A          44.534   1.272  11.841  0.00  0.00     0.075 A 
ATOM     10  C9  UNK A          45.796   1.354  12.430  0.00  0.00     0.071 A 
ATOM     11  C11 UNK A          46.934   1.472  11.630  0.00  0.00     0.074 A 
ENDROOT
BRANCH   5  12
ATOM     12  C4  UNK A          41.587   1.148   8.129  0.00  0.00     0.004 A 
ATOM     13  C10 UNK A          40.925  -0.079   8.179  0.00  0.00     0.053 A 
ATOM     14  C13 UNK A          39.593  -0.170   7.778  0.00  0.00     0.099 A 
ATOM     15  C15 UNK A          38.922   0.966   7.325  0.00  0.00     0.098 A 
ATOM     16  C14 UNK A          39.583   2.193   7.274  0.00  0.00     0.040 A 
ATOM     17  C12 UNK A          40.916   2.285   7.676  0.00  0.00     0.017 A 
BRANCH  14  18
ATOM     18  O6  UNK A          38.958  -1.373   7.830  0.00  0.00    -0.358 OA
ATOM     19  H9  UNK A          38.528  -1.555   6.979  0.00  0.00     0.217 HD
ENDBRANCH  14  18
BRANCH  15  20
ATOM     20  O7  UNK A          37.620   0.890   6.932  0.00  0.00    -0.358 OA
ATOM     21  H10 UNK A          37.572   0.573   6.016  0.00  0.00     0.217 HD
ENDBRANCH  15  20
ENDBRANCH   5  12
BRANCH   6  22
ATOM     22  O2  UNK A          43.820   1.416   6.312  0.00  0.00    -0.355 OA
ATOM     23  H6  UNK A          44.443   2.048   5.916  0.00  0.00     0.218 HD
ENDBRANCH   6  22
BRANCH   8  24
ATOM     24  O3  UNK A          47.958   1.625   9.509  0.00  0.00    -0.360 OA
ATOM     25  H7  UNK A          48.394   2.472   9.691  0.00  0.00     0.217 HD
ENDBRANCH   8  24
BRANCH  10  26
ATOM     26  O5  UNK A          45.917   1.319  13.784  0.00  0.00    -0.361 OA
ATOM     27  H8  UNK A          45.210   0.760  14.150  0.00  0.00     0.217 HD
ENDBRANCH  10  26
TORSDOF 6
ENDMDL
MODEL 20
REMARK VINA RESULT:      -5.5      2.349      3.428
REMARK  6 active torsions:
REMARK  status: ('A' for Active; 'I' for Inactive)
REMARK    1  A    between atoms: O2_2  and  C5_12 
REMARK    2  A    between atoms: O3_3  and  C7_14 
REMARK    3  A    between atoms: O5_5  and  C9_16 
REMARK    4  A    between atoms: O6_6  and  C13_20 
REMARK    5  A    between atoms: O7_7  and  C15_22 
REMARK    6  A    between atoms: C3_10  and  C4_11 
ROOT
ATOM      1  O1  UNK A          44.276   1.036   9.326  0.00  0.00    -0.306 OA
ATOM      2  O4  UNK A          46.625   2.553   6.362  0.00  0.00    -0.284 OA
ATOM      3  C1  UNK A          46.492   1.608   8.518  0.00  0.00     0.084 A 
ATOM      4  C2  UNK A          45.634   1.102   9.493  0.00  0.00     0.096 A 
ATOM      5  C3  UNK A          43.733   1.480   8.130  0.00  0.00     0.123 A 
ATOM      6  C5  UNK A          44.448   1.998   7.114  0.00  0.00     0.152 A 
ATOM      7  C6  UNK A          45.922   2.094   7.252  0.00  0.00     0.223 A 
ATOM      8  C7  UNK A          47.869   1.652   8.745  0.00  0.00     0.085 A 
ATOM      9  C8  UNK A          46.151   0.637  10.703  0.00  0.00     0.075 A 
ATOM     10  C9  UNK A          47.526   0.679  10.933  0.00  0.00     0.071 A 
ATOM     11  C11 UNK A          48.383   1.186   9.955  0.00  0.00     0.074 A 
ENDROOT
BRANCH   5  12
ATOM     12  C4  UNK A          42.266   1.354   8.081  0.00  0.00     0.004 A 
ATOM     13  C10 UNK A          41.669   0.099   8.200  0.00  0.00     0.053 A 
ATOM     14  C13 UNK A          40.281  -0.021   8.155  0.00  0.00     0.099 A 
ATOM     15  C15 UNK A          39.488   1.116   7.990  0.00  0.00     0.098 A 
ATOM     16  C14 UNK A          40.084   2.371   7.871  0.00  0.00     0.040 A 
ATOM     17  C12 UNK A          41.474   2.490   7.917  0.00  0.00     0.017 A 
BRANCH  14  18
ATOM     18  O6  UNK A          39.709  -1.251   8.271  0.00  0.00    -0.358 OA
ATOM     19  H9  UNK A          40.055  -1.702   9.058  0.00  0.00     0.217 HD
ENDBRANCH  14  18
BRANCH  15  20
ATOM     20  O7  UNK A          38.130   1.012   7.946  0.00  0.00    -0.358 OA
ATOM     21  H10 UNK A          37.874   0.077   7.907  0.00  0.00     0.217 HD
ENDBRANCH  15  20
ENDBRANCH   5  12
BRANCH   6  22
ATOM     22  O2  UNK A          43.875   2.462   5.950  0.00  0.00    -0.355 OA
ATOM     23  H6  UNK A          43.002   2.841   6.141  0.00  0.00     0.218 HD
ENDBRANCH   6  22
BRANCH   8  24
ATOM     24  O3  UNK A          48.750   2.136   7.825  0.00  0.00    -0.360 OA
ATOM     25  H7  UNK A          48.415   1.997   6.926  0.00  0.00     0.217 HD
ENDBRANCH   8  24
BRANCH  10  26
ATOM     26  O5  UNK A          48.032   0.227  12.112  0.00  0.00    -0.361 OA
ATOM     27  H8  UNK A          47.767   0.834  12.824  0.00  0.00     0.217 HD
ENDBRANCH  10  26
TORSDOF 6
ENDMDL
