MODEL 1
REMARK VINA RESULT:      -7.5      0.000      0.000
REMARK  6 active torsions:
REMARK  status: ('A' for Active; 'I' for Inactive)
REMARK    1  A    between atoms: O2_2  and  C5_12 
REMARK    2  A    between atoms: O3_3  and  C7_14 
REMARK    3  A    between atoms: O5_5  and  C9_16 
REMARK    4  A    between atoms: O6_6  and  C13_20 
REMARK    5  A    between atoms: O7_7  and  C15_22 
REMARK    6  A    between atoms: C3_10  and  C4_11 
ROOT
ATOM      1  O1  UNK A          39.641  15.127   0.033  0.00  0.00    -0.306 OA
ATOM      2  O4  UNK A          41.752  15.725  -3.402  0.00  0.00    -0.284 OA
ATOM      3  C1  UNK A          40.210  16.573  -1.832  0.00  0.00     0.084 A 
ATOM      4  C2  UNK A          39.515  16.307  -0.653  0.00  0.00     0.096 A 
ATOM      5  C3  UNK A          40.506  14.163  -0.461  0.00  0.00     0.123 A 
ATOM      6  C5  UNK A          41.227  14.292  -1.590  0.00  0.00     0.152 A 
ATOM      7  C6  UNK A          41.120  15.549  -2.368  0.00  0.00     0.223 A 
ATOM      8  C7  UNK A          40.041  17.794  -2.489  0.00  0.00     0.085 A 
ATOM      9  C8  UNK A          38.645  17.261  -0.126  0.00  0.00     0.075 A 
ATOM     10  C9  UNK A          38.474  18.482  -0.779  0.00  0.00     0.071 A 
ATOM     11  C11 UNK A          39.171  18.747  -1.959  0.00  0.00     0.074 A 
ENDROOT
BRANCH   5  12
ATOM     12  C4  UNK A          40.546  12.947   0.370  0.00  0.00     0.004 A 
ATOM     13  C10 UNK A          40.354  13.036   1.749  0.00  0.00     0.053 A 
ATOM     14  C13 UNK A          40.391  11.884   2.534  0.00  0.00     0.099 A 
ATOM     15  C15 UNK A          40.623  10.643   1.941  0.00  0.00     0.098 A 
ATOM     16  C14 UNK A          40.816  10.553   0.563  0.00  0.00     0.040 A 
ATOM     17  C12 UNK A          40.777  11.705  -0.223  0.00  0.00     0.017 A 
BRANCH  14  18
ATOM     18  O6  UNK A          40.203  11.984   3.880  0.00  0.00    -0.358 OA
ATOM     19  H9  UNK A          39.421  11.471   4.141  0.00  0.00     0.217 HD
ENDBRANCH  14  18
BRANCH  15  20
ATOM     20  O7  UNK A          40.660   9.511   2.698  0.00  0.00    -0.358 OA
ATOM     21  H10 UNK A          40.933   8.759   2.150  0.00  0.00     0.217 HD
ENDBRANCH  15  20
ENDBRANCH   5  12
BRANCH   6  22
ATOM     22  O2  UNK A          42.054  13.300  -2.072  0.00  0.00    -0.355 OA
ATOM     23  H6  UNK A          42.574  13.638  -2.819  0.00  0.00     0.218 HD
ENDBRANCH   6  22
BRANCH   8  24
ATOM     24  O3  UNK A          40.696  18.104  -3.643  0.00  0.00    -0.360 OA
ATOM     25  H7  UNK A          40.570  17.407  -4.304  0.00  0.00     0.217 HD
ENDBRANCH   8  24
BRANCH  10  26
ATOM     26  O5  UNK A          37.626  19.414  -0.266  0.00  0.00    -0.361 OA
ATOM     27  H8  UNK A          37.323  19.995  -0.985  0.00  0.00     0.217 HD
ENDBRANCH  10  26
TORSDOF 6
ENDMDL
MODEL 2
REMARK VINA RESULT:      -7.2      1.183      6.433
REMARK  6 active torsions:
REMARK  status: ('A' for Active; 'I' for Inactive)
REMARK    1  A    between atoms: O2_2  and  C5_12 
REMARK    2  A    between atoms: O3_3  and  C7_14 
REMARK    3  A    between atoms: O5_5  and  C9_16 
REMARK    4  A    between atoms: O6_6  and  C13_20 
REMARK    5  A    between atoms: O7_7  and  C15_22 
REMARK    6  A    between atoms: C3_10  and  C4_11 
ROOT
ATOM      1  O1  UNK A          39.730  14.414   0.199  0.00  0.00    -0.306 OA
ATOM      2  O4  UNK A          42.327  12.756  -2.468  0.00  0.00    -0.284 OA
ATOM      3  C1  UNK A          40.966  12.470  -0.564  0.00  0.00     0.084 A 
ATOM      4  C2  UNK A          40.085  13.096   0.316  0.00  0.00     0.096 A 
ATOM      5  C3  UNK A          40.261  15.153  -0.847  0.00  0.00     0.123 A 
ATOM      6  C5  UNK A          41.127  14.671  -1.758  0.00  0.00     0.152 A 
ATOM      7  C6  UNK A          41.544  13.251  -1.668  0.00  0.00     0.223 A 
ATOM      8  C7  UNK A          41.293  11.122  -0.395  0.00  0.00     0.085 A 
ATOM      9  C8  UNK A          39.526  12.376   1.373  0.00  0.00     0.075 A 
ATOM     10  C9  UNK A          39.849  11.030   1.544  0.00  0.00     0.071 A 
ATOM     11  C11 UNK A          40.732  10.405   0.662  0.00  0.00     0.074 A 
ENDROOT
BRANCH   5  12
ATOM     12  C4  UNK A          39.799  16.551  -0.857  0.00  0.00     0.004 A 
ATOM     13  C10 UNK A          38.987  17.026   0.174  0.00  0.00     0.053 A 
ATOM     14  C13 UNK A          38.551  18.350   0.165  0.00  0.00     0.099 A 
ATOM     15  C15 UNK A          38.925  19.201  -0.876  0.00  0.00     0.098 A 
ATOM     16  C14 UNK A          39.736  18.727  -1.907  0.00  0.00     0.040 A 
ATOM     17  C12 UNK A          40.174  17.402  -1.897  0.00  0.00     0.017 A 
BRANCH  14  18
ATOM     18  O6  UNK A          37.757  18.802   1.175  0.00  0.00    -0.358 OA
ATOM     19  H9  UNK A          37.425  19.689   0.960  0.00  0.00     0.217 HD
ENDBRANCH  14  18
BRANCH  15  20
ATOM     20  O7  UNK A          38.506  20.497  -0.895  0.00  0.00    -0.358 OA
ATOM     21  H10 UNK A          37.651  20.572  -0.442  0.00  0.00     0.217 HD
ENDBRANCH  15  20
ENDBRANCH   5  12
BRANCH   6  22
ATOM     22  O2  UNK A          41.663  15.441  -2.767  0.00  0.00    -0.355 OA
ATOM     23  H6  UNK A          41.303  15.159  -3.624  0.00  0.00     0.218 HD
ENDBRANCH   6  22
BRANCH   8  24
ATOM     24  O3  UNK A          42.148  10.463  -1.226  0.00  0.00    -0.360 OA
ATOM     25  H7  UNK A          42.216  10.922  -2.077  0.00  0.00     0.217 HD
ENDBRANCH   8  24
BRANCH  10  26
ATOM     26  O5  UNK A          39.305  10.327   2.574  0.00  0.00    -0.361 OA
ATOM     27  H8  UNK A          39.984  10.187   3.255  0.00  0.00     0.217 HD
ENDBRANCH  10  26
TORSDOF 6
ENDMDL
MODEL 3
REMARK VINA RESULT:      -7.0      2.073      3.086
REMARK  6 active torsions:
REMARK  status: ('A' for Active; 'I' for Inactive)
REMARK    1  A    between atoms: O2_2  and  C5_12 
REMARK    2  A    between atoms: O3_3  and  C7_14 
REMARK    3  A    between atoms: O5_5  and  C9_16 
REMARK    4  A    between atoms: O6_6  and  C13_20 
REMARK    5  A    between atoms: O7_7  and  C15_22 
REMARK    6  A    between atoms: C3_10  and  C4_11 
ROOT
ATOM      1  O1  UNK A          39.300  17.445  -0.154  0.00  0.00    -0.306 OA
ATOM      2  O4  UNK A          40.635  18.963  -3.693  0.00  0.00    -0.284 OA
ATOM      3  C1  UNK A          39.805  19.382  -1.526  0.00  0.00     0.084 A 
ATOM      4  C2  UNK A          39.358  18.801  -0.341  0.00  0.00     0.096 A 
ATOM      5  C3  UNK A          39.718  16.617  -1.184  0.00  0.00     0.123 A 
ATOM      6  C5  UNK A          40.163  17.050  -2.378  0.00  0.00     0.152 A 
ATOM      7  C6  UNK A          40.237  18.509  -2.628  0.00  0.00     0.223 A 
ATOM      8  C7  UNK A          39.840  20.773  -1.660  0.00  0.00     0.085 A 
ATOM      9  C8  UNK A          38.940  19.609   0.718  0.00  0.00     0.075 A 
ATOM     10  C9  UNK A          38.974  20.997   0.588  0.00  0.00     0.071 A 
ATOM     11  C11 UNK A          39.423  21.577  -0.600  0.00  0.00     0.074 A 
ENDROOT
BRANCH   5  12
ATOM     12  C4  UNK A          39.605  15.185  -0.853  0.00  0.00     0.004 A 
ATOM     13  C10 UNK A          40.654  14.533  -0.204  0.00  0.00     0.053 A 
ATOM     14  C13 UNK A          40.546  13.180   0.110  0.00  0.00     0.099 A 
ATOM     15  C15 UNK A          39.390  12.475  -0.227  0.00  0.00     0.098 A 
ATOM     16  C14 UNK A          38.341  13.126  -0.876  0.00  0.00     0.040 A 
ATOM     17  C12 UNK A          38.448  14.481  -1.189  0.00  0.00     0.017 A 
BRANCH  14  18
ATOM     18  O6  UNK A          41.577  12.554   0.743  0.00  0.00    -0.358 OA
ATOM     19  H9  UNK A          41.314  12.321   1.649  0.00  0.00     0.217 HD
ENDBRANCH  14  18
BRANCH  15  20
ATOM     20  O7  UNK A          39.273  11.152   0.077  0.00  0.00    -0.358 OA
ATOM     21  H10 UNK A          40.002  10.883   0.657  0.00  0.00     0.217 HD
ENDBRANCH  15  20
ENDBRANCH   5  12
BRANCH   6  22
ATOM     22  O2  UNK A          40.540  16.199  -3.395  0.00  0.00    -0.355 OA
ATOM     23  H6  UNK A          41.501  16.059  -3.369  0.00  0.00     0.218 HD
ENDBRANCH   6  22
BRANCH   8  24
ATOM     24  O3  UNK A          40.269  21.391  -2.796  0.00  0.00    -0.360 OA
ATOM     25  H7  UNK A          39.555  21.917  -3.187  0.00  0.00     0.217 HD
ENDBRANCH   8  24
BRANCH  10  26
ATOM     26  O5  UNK A          38.568  21.786   1.619  0.00  0.00    -0.361 OA
ATOM     27  H8  UNK A          37.706  21.469   1.939  0.00  0.00     0.217 HD
ENDBRANCH  10  26
TORSDOF 6
ENDMDL
MODEL 4
REMARK VINA RESULT:      -6.8     15.014     16.071
REMARK  6 active torsions:
REMARK  status: ('A' for Active; 'I' for Inactive)
REMARK    1  A    between atoms: O2_2  and  C5_12 
REMARK    2  A    between atoms: O3_3  and  C7_14 
REMARK    3  A    between atoms: O5_5  and  C9_16 
REMARK    4  A    between atoms: O6_6  and  C13_20 
REMARK    5  A    between atoms: O7_7  and  C15_22 
REMARK    6  A    between atoms: C3_10  and  C4_11 
ROOT
ATOM      1  O1  UNK A          43.572   1.873   7.598  0.00  0.00    -0.306 OA
ATOM      2  O4  UNK A          44.081   4.901  10.277  0.00  0.00    -0.284 OA
ATOM      3  C1  UNK A          45.040   3.498   8.643  0.00  0.00     0.084 A 
ATOM      4  C2  UNK A          44.802   2.459   7.746  0.00  0.00     0.096 A 
ATOM      5  C3  UNK A          42.518   2.344   8.365  0.00  0.00     0.123 A 
ATOM      6  C5  UNK A          42.617   3.334   9.271  0.00  0.00     0.152 A 
ATOM      7  C6  UNK A          43.929   3.994   9.469  0.00  0.00     0.223 A 
ATOM      8  C7  UNK A          46.317   4.056   8.751  0.00  0.00     0.085 A 
ATOM      9  C8  UNK A          45.840   1.969   6.953  0.00  0.00     0.075 A 
ATOM     10  C9  UNK A          47.116   2.524   7.058  0.00  0.00     0.071 A 
ATOM     11  C11 UNK A          47.353   3.566   7.957  0.00  0.00     0.074 A 
ENDROOT
BRANCH   5  12
ATOM     12  C4  UNK A          41.255   1.629   8.109  0.00  0.00     0.004 A 
ATOM     13  C10 UNK A          40.352   2.122   7.166  0.00  0.00     0.053 A 
ATOM     14  C13 UNK A          39.158   1.444   6.923  0.00  0.00     0.099 A 
ATOM     15  C15 UNK A          38.865   0.274   7.624  0.00  0.00     0.098 A 
ATOM     16  C14 UNK A          39.767  -0.219   8.566  0.00  0.00     0.040 A 
ATOM     17  C12 UNK A          40.962   0.458   8.809  0.00  0.00     0.017 A 
BRANCH  14  18
ATOM     18  O6  UNK A          38.284   1.936   6.001  0.00  0.00    -0.358 OA
ATOM     19  H9  UNK A          38.334   1.408   5.188  0.00  0.00     0.217 HD
ENDBRANCH  14  18
BRANCH  15  20
ATOM     20  O7  UNK A          37.702  -0.397   7.394  0.00  0.00    -0.358 OA
ATOM     21  H10 UNK A          37.464  -0.919   8.176  0.00  0.00     0.217 HD
ENDBRANCH  15  20
ENDBRANCH   5  12
BRANCH   6  22
ATOM     22  O2  UNK A          41.556   3.758  10.042  0.00  0.00    -0.355 OA
ATOM     23  H6  UNK A          41.880   4.289  10.787  0.00  0.00     0.218 HD
ENDBRANCH   6  22
BRANCH   8  24
ATOM     24  O3  UNK A          46.603   5.074   9.612  0.00  0.00    -0.360 OA
ATOM     25  H7  UNK A          47.387   4.862  10.140  0.00  0.00     0.217 HD
ENDBRANCH   8  24
BRANCH  10  26
ATOM     26  O5  UNK A          48.129   2.049   6.286  0.00  0.00    -0.361 OA
ATOM     27  H8  UNK A          47.768   1.768   5.427  0.00  0.00     0.217 HD
ENDBRANCH  10  26
TORSDOF 6
ENDMDL
MODEL 5
REMARK VINA RESULT:      -6.7      1.875      2.666
REMARK  6 active torsions:
REMARK  status: ('A' for Active; 'I' for Inactive)
REMARK    1  A    between atoms: O2_2  and  C5_12 
REMARK    2  A    between atoms: O3_3  and  C7_14 
REMARK    3  A    between atoms: O5_5  and  C9_16 
REMARK    4  A    between atoms: O6_6  and  C13_20 
REMARK    5  A    between atoms: O7_7  and  C15_22 
REMARK    6  A    between atoms: C3_10  and  C4_11 
ROOT
ATOM      1  O1  UNK A          39.400  16.345  -0.219  0.00  0.00    -0.306 OA
ATOM      2  O4  UNK A          40.594  18.770  -3.269  0.00  0.00    -0.284 OA
ATOM      3  C1  UNK A          39.422  18.549  -1.234  0.00  0.00     0.084 A 
ATOM      4  C2  UNK A          39.045  17.668  -0.222  0.00  0.00     0.096 A 
ATOM      5  C3  UNK A          40.179  15.865  -1.261  0.00  0.00     0.123 A 
ATOM      6  C5  UNK A          40.602  16.608  -2.301  0.00  0.00     0.152 A 
ATOM      7  C6  UNK A          40.238  18.044  -2.350  0.00  0.00     0.223 A 
ATOM      8  C7  UNK A          39.030  19.889  -1.185  0.00  0.00     0.085 A 
ATOM      9  C8  UNK A          38.270  18.123   0.845  0.00  0.00     0.075 A 
ATOM     10  C9  UNK A          37.876  19.460   0.898  0.00  0.00     0.071 A 
ATOM     11  C11 UNK A          38.256  20.341  -0.116  0.00  0.00     0.074 A 
ENDROOT
BRANCH   5  12
ATOM     12  C4  UNK A          40.488  14.430  -1.135  0.00  0.00     0.004 A 
ATOM     13  C10 UNK A          39.611  13.583  -0.458  0.00  0.00     0.053 A 
ATOM     14  C13 UNK A          39.903  12.225  -0.340  0.00  0.00     0.099 A 
ATOM     15  C15 UNK A          41.075  11.713  -0.899  0.00  0.00     0.098 A 
ATOM     16  C14 UNK A          41.953  12.560  -1.576  0.00  0.00     0.040 A 
ATOM     17  C12 UNK A          41.660  13.918  -1.694  0.00  0.00     0.017 A 
BRANCH  14  18
ATOM     18  O6  UNK A          39.040  11.408   0.324  0.00  0.00    -0.358 OA
ATOM     19  H9  UNK A          38.317  11.933   0.703  0.00  0.00     0.217 HD
ENDBRANCH  14  18
BRANCH  15  20
ATOM     20  O7  UNK A          41.372  10.388  -0.791  0.00  0.00    -0.358 OA
ATOM     21  H10 UNK A          42.249  10.216  -1.169  0.00  0.00     0.217 HD
ENDBRANCH  15  20
ENDBRANCH   5  12
BRANCH   6  22
ATOM     22  O2  UNK A          41.348  16.093  -3.339  0.00  0.00    -0.355 OA
ATOM     23  H6  UNK A          41.815  15.294  -3.045  0.00  0.00     0.218 HD
ENDBRANCH   6  22
BRANCH   8  24
ATOM     24  O3  UNK A          39.372  20.790  -2.148  0.00  0.00    -0.360 OA
ATOM     25  H7  UNK A          39.245  20.410  -3.030  0.00  0.00     0.217 HD
ENDBRANCH   8  24
BRANCH  10  26
ATOM     26  O5  UNK A          37.121  19.905   1.938  0.00  0.00    -0.361 OA
ATOM     27  H8  UNK A          37.590  19.723   2.770  0.00  0.00     0.217 HD
ENDBRANCH  10  26
TORSDOF 6
ENDMDL
MODEL 6
REMARK VINA RESULT:      -6.6     14.841     15.590
REMARK  6 active torsions:
REMARK  status: ('A' for Active; 'I' for Inactive)
REMARK    1  A    between atoms: O2_2  and  C5_12 
REMARK    2  A    between atoms: O3_3  and  C7_14 
REMARK    3  A    between atoms: O5_5  and  C9_16 
REMARK    4  A    between atoms: O6_6  and  C13_20 
REMARK    5  A    between atoms: O7_7  and  C15_22 
REMARK    6  A    between atoms: C3_10  and  C4_11 
ROOT
ATOM      1  O1  UNK A          42.422   3.349   9.036  0.00  0.00    -0.306 OA
ATOM      2  O4  UNK A          46.041   2.344   7.454  0.00  0.00    -0.284 OA
ATOM      3  C1  UNK A          44.794   3.812   8.815  0.00  0.00     0.084 A 
ATOM      4  C2  UNK A          43.529   4.103   9.322  0.00  0.00     0.096 A 
ATOM      5  C3  UNK A          42.569   2.240   8.216  0.00  0.00     0.123 A 
ATOM      6  C5  UNK A          43.731   1.856   7.656  0.00  0.00     0.152 A 
ATOM      7  C6  UNK A          44.955   2.645   7.934  0.00  0.00     0.223 A 
ATOM      8  C7  UNK A          45.887   4.619   9.140  0.00  0.00     0.085 A 
ATOM      9  C8  UNK A          43.350   5.206  10.158  0.00  0.00     0.075 A 
ATOM     10  C9  UNK A          44.439   6.014  10.486  0.00  0.00     0.071 A 
ATOM     11  C11 UNK A          45.705   5.720   9.977  0.00  0.00     0.074 A 
ENDROOT
BRANCH   5  12
ATOM     12  C4  UNK A          41.305   1.519   7.990  0.00  0.00     0.004 A 
ATOM     13  C10 UNK A          40.353   2.036   7.111  0.00  0.00     0.053 A 
ATOM     14  C13 UNK A          39.157   1.353   6.896  0.00  0.00     0.099 A 
ATOM     15  C15 UNK A          38.911   0.152   7.562  0.00  0.00     0.098 A 
ATOM     16  C14 UNK A          39.862  -0.366   8.441  0.00  0.00     0.040 A 
ATOM     17  C12 UNK A          41.059   0.317   8.655  0.00  0.00     0.017 A 
BRANCH  14  18
ATOM     18  O6  UNK A          38.235   1.868   6.036  0.00  0.00    -0.358 OA
ATOM     19  H9  UNK A          37.897   1.165   5.458  0.00  0.00     0.217 HD
ENDBRANCH  14  18
BRANCH  15  20
ATOM     20  O7  UNK A          37.746  -0.526   7.359  0.00  0.00    -0.358 OA
ATOM     21  H10 UNK A          37.203  -0.490   8.162  0.00  0.00     0.217 HD
ENDBRANCH  15  20
ENDBRANCH   5  12
BRANCH   6  22
ATOM     22  O2  UNK A          43.839   0.767   6.819  0.00  0.00    -0.355 OA
ATOM     23  H6  UNK A          43.882   1.064   5.895  0.00  0.00     0.218 HD
ENDBRANCH   6  22
BRANCH   8  24
ATOM     24  O3  UNK A          47.143   4.378   8.671  0.00  0.00    -0.360 OA
ATOM     25  H7  UNK A          47.117   4.154   7.728  0.00  0.00     0.217 HD
ENDBRANCH   8  24
BRANCH  10  26
ATOM     26  O5  UNK A          44.267   7.089  11.301  0.00  0.00    -0.361 OA
ATOM     27  H8  UNK A          43.377   7.050  11.692  0.00  0.00     0.217 HD
ENDBRANCH  10  26
TORSDOF 6
ENDMDL
MODEL 7
REMARK VINA RESULT:      -6.5     15.120     18.068
REMARK  6 active torsions:
REMARK  status: ('A' for Active; 'I' for Inactive)
REMARK    1  A    between atoms: O2_2  and  C5_12 
REMARK    2  A    between atoms: O3_3  and  C7_14 
REMARK    3  A    between atoms: O5_5  and  C9_16 
REMARK    4  A    between atoms: O6_6  and  C13_20 
REMARK    5  A    between atoms: O7_7  and  C15_22 
REMARK    6  A    between atoms: C3_10  and  C4_11 
ROOT
ATOM      1  O1  UNK A          39.708   0.373   8.619  0.00  0.00    -0.306 OA
ATOM      2  O4  UNK A          43.444  -0.770   9.779  0.00  0.00    -0.284 OA
ATOM      3  C1  UNK A          41.880   0.976   9.520  0.00  0.00     0.084 A 
ATOM      4  C2  UNK A          40.590   1.302   9.106  0.00  0.00     0.096 A 
ATOM      5  C3  UNK A          40.113  -0.950   8.548  0.00  0.00     0.123 A 
ATOM      6  C5  UNK A          41.332  -1.395   8.907  0.00  0.00     0.152 A 
ATOM      7  C6  UNK A          42.321  -0.425   9.435  0.00  0.00     0.223 A 
ATOM      8  C7  UNK A          42.736   1.966  10.007  0.00  0.00     0.085 A 
ATOM      9  C8  UNK A          40.149   2.625   9.174  0.00  0.00     0.075 A 
ATOM     10  C9  UNK A          41.001   3.617   9.660  0.00  0.00     0.071 A 
ATOM     11  C11 UNK A          42.293   3.287  10.075  0.00  0.00     0.074 A 
ENDROOT
BRANCH   5  12
ATOM     12  C4  UNK A          39.072  -1.843   8.009  0.00  0.00     0.004 A 
ATOM     13  C10 UNK A          39.358  -2.676   6.927  0.00  0.00     0.053 A 
ATOM     14  C13 UNK A          38.373  -3.521   6.418  0.00  0.00     0.099 A 
ATOM     15  C15 UNK A          37.100  -3.532   6.989  0.00  0.00     0.098 A 
ATOM     16  C14 UNK A          36.814  -2.699   8.070  0.00  0.00     0.040 A 
ATOM     17  C12 UNK A          37.800  -1.854   8.580  0.00  0.00     0.017 A 
BRANCH  14  18
ATOM     18  O6  UNK A          38.663  -4.330   5.361  0.00  0.00    -0.358 OA
ATOM     19  H9  UNK A          38.168  -4.037   4.578  0.00  0.00     0.217 HD
ENDBRANCH  14  18
BRANCH  15  20
ATOM     20  O7  UNK A          36.130  -4.355   6.501  0.00  0.00    -0.358 OA
ATOM     21  H10 UNK A          36.514  -5.217   6.275  0.00  0.00     0.217 HD
ENDBRANCH  15  20
ENDBRANCH   5  12
BRANCH   6  22
ATOM     22  O2  UNK A          41.715  -2.714   8.794  0.00  0.00    -0.355 OA
ATOM     23  H6  UNK A          42.098  -3.020   9.632  0.00  0.00     0.218 HD
ENDBRANCH   6  22
BRANCH   8  24
ATOM     24  O3  UNK A          44.006   1.700  10.424  0.00  0.00    -0.360 OA
ATOM     25  H7  UNK A          43.993   1.219  11.265  0.00  0.00     0.217 HD
ENDBRANCH   8  24
BRANCH  10  26
ATOM     26  O5  UNK A          40.574   4.906   9.728  0.00  0.00    -0.361 OA
ATOM     27  H8  UNK A          41.328   5.478   9.950  0.00  0.00     0.217 HD
ENDBRANCH  10  26
TORSDOF 6
ENDMDL
MODEL 8
REMARK VINA RESULT:      -6.5     13.382     15.516
REMARK  6 active torsions:
REMARK  status: ('A' for Active; 'I' for Inactive)
REMARK    1  A    between atoms: O2_2  and  C5_12 
REMARK    2  A    between atoms: O3_3  and  C7_14 
REMARK    3  A    between atoms: O5_5  and  C9_16 
REMARK    4  A    between atoms: O6_6  and  C13_20 
REMARK    5  A    between atoms: O7_7  and  C15_22 
REMARK    6  A    between atoms: C3_10  and  C4_11 
ROOT
ATOM      1  O1  UNK A          42.370  21.259  12.002  0.00  0.00    -0.306 OA
ATOM      2  O4  UNK A          45.614  18.966  11.091  0.00  0.00    -0.284 OA
ATOM      3  C1  UNK A          43.387  19.060  11.862  0.00  0.00     0.084 A 
ATOM      4  C2  UNK A          42.314  19.899  12.156  0.00  0.00     0.096 A 
ATOM      5  C3  UNK A          43.541  21.823  11.519  0.00  0.00     0.123 A 
ATOM      6  C5  UNK A          44.650  21.127  11.205  0.00  0.00     0.152 A 
ATOM      7  C6  UNK A          44.637  19.652  11.361  0.00  0.00     0.223 A 
ATOM      8  C7  UNK A          43.272  17.679  12.040  0.00  0.00     0.085 A 
ATOM      9  C8  UNK A          41.118  19.361  12.635  0.00  0.00     0.075 A 
ATOM     10  C9  UNK A          41.000  17.982  12.814  0.00  0.00     0.071 A 
ATOM     11  C11 UNK A          42.076  17.144  12.517  0.00  0.00     0.074 A 
ENDROOT
BRANCH   5  12
ATOM     12  C4  UNK A          43.467  23.289  11.401  0.00  0.00     0.004 A 
ATOM     13  C10 UNK A          43.678  23.902  10.165  0.00  0.00     0.053 A 
ATOM     14  C13 UNK A          43.606  25.290  10.053  0.00  0.00     0.099 A 
ATOM     15  C15 UNK A          43.327  26.067  11.178  0.00  0.00     0.098 A 
ATOM     16  C14 UNK A          43.117  25.455  12.413  0.00  0.00     0.040 A 
ATOM     17  C12 UNK A          43.187  24.066  12.525  0.00  0.00     0.017 A 
BRANCH  14  18
ATOM     18  O6  UNK A          43.814  25.877   8.842  0.00  0.00    -0.358 OA
ATOM     19  H9  UNK A          42.977  25.926   8.352  0.00  0.00     0.217 HD
ENDBRANCH  14  18
BRANCH  15  20
ATOM     20  O7  UNK A          43.253  27.424  11.081  0.00  0.00    -0.358 OA
ATOM     21  H10 UNK A          43.967  27.829  11.598  0.00  0.00     0.217 HD
ENDBRANCH  15  20
ENDBRANCH   5  12
BRANCH   6  22
ATOM     22  O2  UNK A          45.810  21.721  10.758  0.00  0.00    -0.355 OA
ATOM     23  H6  UNK A          46.494  21.667  11.445  0.00  0.00     0.218 HD
ENDBRANCH   6  22
BRANCH   8  24
ATOM     24  O3  UNK A          44.290  16.816  11.767  0.00  0.00    -0.360 OA
ATOM     25  H7  UNK A          43.944  15.979  11.422  0.00  0.00     0.217 HD
ENDBRANCH   8  24
BRANCH  10  26
ATOM     26  O5  UNK A          39.835  17.456  13.279  0.00  0.00    -0.361 OA
ATOM     27  H8  UNK A          39.574  16.713  12.709  0.00  0.00     0.217 HD
ENDBRANCH  10  26
TORSDOF 6
ENDMDL
MODEL 9
REMARK VINA RESULT:      -6.4     13.140     15.686
REMARK  6 active torsions:
REMARK  status: ('A' for Active; 'I' for Inactive)
REMARK    1  A    between atoms: O2_2  and  C5_12 
REMARK    2  A    between atoms: O3_3  and  C7_14 
REMARK    3  A    between atoms: O5_5  and  C9_16 
REMARK    4  A    between atoms: O6_6  and  C13_20 
REMARK    5  A    between atoms: O7_7  and  C15_22 
REMARK    6  A    between atoms: C3_10  and  C4_11 
ROOT
ATOM      1  O1  UNK A          44.439  21.304  11.719  0.00  0.00    -0.306 OA
ATOM      2  O4  UNK A          41.148  18.925  11.372  0.00  0.00    -0.284 OA
ATOM      3  C1  UNK A          43.472  19.078  11.744  0.00  0.00     0.084 A 
ATOM      4  C2  UNK A          44.557  19.945  11.850  0.00  0.00     0.096 A 
ATOM      5  C3  UNK A          43.182  21.839  11.484  0.00  0.00     0.123 A 
ATOM      6  C5  UNK A          42.056  21.113  11.352  0.00  0.00     0.152 A 
ATOM      7  C6  UNK A          42.137  19.638  11.481  0.00  0.00     0.223 A 
ATOM      8  C7  UNK A          43.653  17.700  11.886  0.00  0.00     0.085 A 
ATOM      9  C8  UNK A          45.834  19.437  12.097  0.00  0.00     0.075 A 
ATOM     10  C9  UNK A          46.019  18.062  12.239  0.00  0.00     0.071 A 
ATOM     11  C11 UNK A          44.930  17.196  12.133  0.00  0.00     0.074 A 
ENDROOT
BRANCH   5  12
ATOM     12  C4  UNK A          43.195  23.307  11.364  0.00  0.00     0.004 A 
ATOM     13  C10 UNK A          43.513  23.907  10.146  0.00  0.00     0.053 A 
ATOM     14  C13 UNK A          43.524  25.296  10.033  0.00  0.00     0.099 A 
ATOM     15  C15 UNK A          43.218  26.088  11.140  0.00  0.00     0.098 A 
ATOM     16  C14 UNK A          42.900  25.490  12.359  0.00  0.00     0.040 A 
ATOM     17  C12 UNK A          42.888  24.099  12.472  0.00  0.00     0.017 A 
BRANCH  14  18
ATOM     18  O6  UNK A          43.837  25.870   8.838  0.00  0.00    -0.358 OA
ATOM     19  H9  UNK A          43.140  26.495   8.581  0.00  0.00     0.217 HD
ENDBRANCH  14  18
BRANCH  15  20
ATOM     20  O7  UNK A          43.224  27.447  11.042  0.00  0.00    -0.358 OA
ATOM     21  H10 UNK A          42.710  27.830  11.770  0.00  0.00     0.217 HD
ENDBRANCH  15  20
ENDBRANCH   5  12
BRANCH   6  22
ATOM     22  O2  UNK A          40.826  21.673  11.085  0.00  0.00    -0.355 OA
ATOM     23  H6  UNK A          40.234  21.004  10.706  0.00  0.00     0.218 HD
ENDBRANCH   6  22
BRANCH   8  24
ATOM     24  O3  UNK A          42.626  16.810  11.791  0.00  0.00    -0.360 OA
ATOM     25  H7  UNK A          41.835  17.154  12.233  0.00  0.00     0.217 HD
ENDBRANCH   8  24
BRANCH  10  26
ATOM     26  O5  UNK A          47.262  17.565  12.480  0.00  0.00    -0.361 OA
ATOM     27  H8  UNK A          47.906  18.293  12.443  0.00  0.00     0.217 HD
ENDBRANCH  10  26
TORSDOF 6
ENDMDL
MODEL 10
REMARK VINA RESULT:      -6.4     24.946     28.208
REMARK  6 active torsions:
REMARK  status: ('A' for Active; 'I' for Inactive)
REMARK    1  A    between atoms: O2_2  and  C5_12 
REMARK    2  A    between atoms: O3_3  and  C7_14 
REMARK    3  A    between atoms: O5_5  and  C9_16 
REMARK    4  A    between atoms: O6_6  and  C13_20 
REMARK    5  A    between atoms: O7_7  and  C15_22 
REMARK    6  A    between atoms: C3_10  and  C4_11 
ROOT
ATOM      1  O1  UNK A          48.020 -11.155  -3.985  0.00  0.00    -0.306 OA
ATOM      2  O4  UNK A          50.561 -12.305  -6.957  0.00  0.00    -0.284 OA
ATOM      3  C1  UNK A          49.859 -10.612  -5.473  0.00  0.00     0.084 A 
ATOM      4  C2  UNK A          48.962 -10.280  -4.460  0.00  0.00     0.096 A 
ATOM      5  C3  UNK A          47.969 -12.430  -4.527  0.00  0.00     0.123 A 
ATOM      6  C5  UNK A          48.771 -12.873  -5.513  0.00  0.00     0.152 A 
ATOM      7  C6  UNK A          49.802 -11.958  -6.062  0.00  0.00     0.223 A 
ATOM      8  C7  UNK A          50.797  -9.677  -5.918  0.00  0.00     0.085 A 
ATOM      9  C8  UNK A          48.995  -9.007  -3.888  0.00  0.00     0.075 A 
ATOM     10  C9  UNK A          49.930  -8.071  -4.330  0.00  0.00     0.071 A 
ATOM     11  C11 UNK A          50.829  -8.406  -5.343  0.00  0.00     0.074 A 
ENDROOT
BRANCH   5  12
ATOM     12  C4  UNK A          46.915 -13.268  -3.928  0.00  0.00     0.004 A 
ATOM     13  C10 UNK A          45.635 -13.282  -4.482  0.00  0.00     0.053 A 
ATOM     14  C13 UNK A          44.639 -14.076  -3.915  0.00  0.00     0.099 A 
ATOM     15  C15 UNK A          44.922 -14.855  -2.793  0.00  0.00     0.098 A 
ATOM     16  C14 UNK A          46.201 -14.841  -2.239  0.00  0.00     0.040 A 
ATOM     17  C12 UNK A          47.199 -14.047  -2.806  0.00  0.00     0.017 A 
BRANCH  14  18
ATOM     18  O6  UNK A          43.392 -14.082  -4.464  0.00  0.00    -0.358 OA
ATOM     19  H9  UNK A          43.369 -14.688  -5.222  0.00  0.00     0.217 HD
ENDBRANCH  14  18
BRANCH  15  20
ATOM     20  O7  UNK A          43.957 -15.636  -2.231  0.00  0.00    -0.358 OA
ATOM     21  H10 UNK A          43.092 -15.412  -2.611  0.00  0.00     0.217 HD
ENDBRANCH  15  20
ENDBRANCH   5  12
BRANCH   6  22
ATOM     22  O2  UNK A          48.673 -14.137  -6.053  0.00  0.00    -0.355 OA
ATOM     23  H6  UNK A          49.478 -14.643  -5.856  0.00  0.00     0.218 HD
ENDBRANCH   6  22
BRANCH   8  24
ATOM     24  O3  UNK A          51.696  -9.951  -6.905  0.00  0.00    -0.360 OA
ATOM     25  H7  UNK A          51.247 -10.045  -7.758  0.00  0.00     0.217 HD
ENDBRANCH   8  24
BRANCH  10  26
ATOM     26  O5  UNK A          49.965  -6.831  -3.772  0.00  0.00    -0.361 OA
ATOM     27  H8  UNK A          49.119  -6.383  -3.945  0.00  0.00     0.217 HD
ENDBRANCH  10  26
TORSDOF 6
ENDMDL
MODEL 11
REMARK VINA RESULT:      -6.4     15.994     18.388
REMARK  6 active torsions:
REMARK  status: ('A' for Active; 'I' for Inactive)
REMARK    1  A    between atoms: O2_2  and  C5_12 
REMARK    2  A    between atoms: O3_3  and  C7_14 
REMARK    3  A    between atoms: O5_5  and  C9_16 
REMARK    4  A    between atoms: O6_6  and  C13_20 
REMARK    5  A    between atoms: O7_7  and  C15_22 
REMARK    6  A    between atoms: C3_10  and  C4_11 
ROOT
ATOM      1  O1  UNK A          45.247   0.177   9.941  0.00  0.00    -0.306 OA
ATOM      2  O4  UNK A          44.423   2.233   6.520  0.00  0.00    -0.284 OA
ATOM      3  C1  UNK A          46.035   1.548   8.100  0.00  0.00     0.084 A 
ATOM      4  C2  UNK A          46.250   0.829   9.274  0.00  0.00     0.096 A 
ATOM      5  C3  UNK A          43.964   0.224   9.417  0.00  0.00     0.123 A 
ATOM      6  C5  UNK A          43.622   0.888   8.298  0.00  0.00     0.152 A 
ATOM      7  C6  UNK A          44.674   1.613   7.546  0.00  0.00     0.223 A 
ATOM      8  C7  UNK A          47.097   2.195   7.464  0.00  0.00     0.085 A 
ATOM      9  C8  UNK A          47.532   0.755   9.822  0.00  0.00     0.075 A 
ATOM     10  C9  UNK A          48.596   1.399   9.189  0.00  0.00     0.071 A 
ATOM     11  C11 UNK A          48.377   2.118   8.013  0.00  0.00     0.074 A 
ENDROOT
BRANCH   5  12
ATOM     12  C4  UNK A          42.983  -0.517  10.229  0.00  0.00     0.004 A 
ATOM     13  C10 UNK A          42.627  -1.820   9.879  0.00  0.00     0.053 A 
ATOM     14  C13 UNK A          41.700  -2.521  10.648  0.00  0.00     0.099 A 
ATOM     15  C15 UNK A          41.126  -1.919  11.768  0.00  0.00     0.098 A 
ATOM     16  C14 UNK A          41.481  -0.617  12.119  0.00  0.00     0.040 A 
ATOM     17  C12 UNK A          42.409   0.085  11.350  0.00  0.00     0.017 A 
BRANCH  14  18
ATOM     18  O6  UNK A          41.360  -3.792  10.296  0.00  0.00    -0.358 OA
ATOM     19  H9  UNK A          40.630  -3.771   9.655  0.00  0.00     0.217 HD
ENDBRANCH  14  18
BRANCH  15  20
ATOM     20  O7  UNK A          40.219  -2.595  12.529  0.00  0.00    -0.358 OA
ATOM     21  H10 UNK A          40.581  -2.740  13.417  0.00  0.00     0.217 HD
ENDBRANCH  15  20
ENDBRANCH   5  12
BRANCH   6  22
ATOM     22  O2  UNK A          42.330   0.943   7.820  0.00  0.00    -0.355 OA
ATOM     23  H6  UNK A          41.731   1.243   8.523  0.00  0.00     0.218 HD
ENDBRANCH   6  22
BRANCH   8  24
ATOM     24  O3  UNK A          46.940   2.910   6.315  0.00  0.00    -0.360 OA
ATOM     25  H7  UNK A          47.792   3.258   6.011  0.00  0.00     0.217 HD
ENDBRANCH   8  24
BRANCH  10  26
ATOM     26  O5  UNK A          49.846   1.328   9.720  0.00  0.00    -0.361 OA
ATOM     27  H8  UNK A          49.864   1.829  10.554  0.00  0.00     0.217 HD
ENDBRANCH  10  26
TORSDOF 6
ENDMDL
MODEL 12
REMARK VINA RESULT:      -6.3     15.372     17.329
REMARK  6 active torsions:
REMARK  status: ('A' for Active; 'I' for Inactive)
REMARK    1  A    between atoms: O2_2  and  C5_12 
REMARK    2  A    between atoms: O3_3  and  C7_14 
REMARK    3  A    between atoms: O5_5  and  C9_16 
REMARK    4  A    between atoms: O6_6  and  C13_20 
REMARK    5  A    between atoms: O7_7  and  C15_22 
REMARK    6  A    between atoms: C3_10  and  C4_11 
ROOT
ATOM      1  O1  UNK A          44.216   1.639   7.540  0.00  0.00    -0.306 OA
ATOM      2  O4  UNK A          45.744   0.787  11.221  0.00  0.00    -0.284 OA
ATOM      3  C1  UNK A          46.141   1.509   9.011  0.00  0.00     0.084 A 
ATOM      4  C2  UNK A          45.558   1.783   7.776  0.00  0.00     0.096 A 
ATOM      5  C3  UNK A          43.402   1.216   8.580  0.00  0.00     0.123 A 
ATOM      6  C5  UNK A          43.841   0.911   9.816  0.00  0.00     0.152 A 
ATOM      7  C6  UNK A          45.287   1.047  10.115  0.00  0.00     0.223 A 
ATOM      8  C7  UNK A          47.517   1.673   9.193  0.00  0.00     0.085 A 
ATOM      9  C8  UNK A          46.348   2.220   6.712  0.00  0.00     0.075 A 
ATOM     10  C9  UNK A          47.722   2.385   6.889  0.00  0.00     0.071 A 
ATOM     11  C11 UNK A          48.305   2.111   8.128  0.00  0.00     0.074 A 
ENDROOT
BRANCH   5  12
ATOM     12  C4  UNK A          41.985   1.104   8.194  0.00  0.00     0.004 A 
ATOM     13  C10 UNK A          41.328  -0.122   8.295  0.00  0.00     0.053 A 
ATOM     14  C13 UNK A          39.986  -0.227   7.930  0.00  0.00     0.099 A 
ATOM     15  C15 UNK A          39.301   0.894   7.462  0.00  0.00     0.098 A 
ATOM     16  C14 UNK A          39.958   2.120   7.360  0.00  0.00     0.040 A 
ATOM     17  C12 UNK A          41.300   2.226   7.726  0.00  0.00     0.017 A 
BRANCH  14  18
ATOM     18  O6  UNK A          39.355  -1.430   8.032  0.00  0.00    -0.358 OA
ATOM     19  H9  UNK A          39.997  -2.149   7.909  0.00  0.00     0.217 HD
ENDBRANCH  14  18
BRANCH  15  20
ATOM     20  O7  UNK A          37.989   0.804   7.104  0.00  0.00    -0.358 OA
ATOM     21  H10 UNK A          37.456   1.387   7.667  0.00  0.00     0.217 HD
ENDBRANCH  15  20
ENDBRANCH   5  12
BRANCH   6  22
ATOM     22  O2  UNK A          43.011   0.462  10.819  0.00  0.00    -0.355 OA
ATOM     23  H6  UNK A          43.438   0.587  11.682  0.00  0.00     0.218 HD
ENDBRANCH   6  22
BRANCH   8  24
ATOM     24  O3  UNK A          48.137   1.420  10.379  0.00  0.00    -0.360 OA
ATOM     25  H7  UNK A          47.760   0.631  10.799  0.00  0.00     0.217 HD
ENDBRANCH   8  24
BRANCH  10  26
ATOM     26  O5  UNK A          48.494   2.811   5.854  0.00  0.00    -0.361 OA
ATOM     27  H8  UNK A          49.139   2.117   5.634  0.00  0.00     0.217 HD
ENDBRANCH  10  26
TORSDOF 6
ENDMDL
MODEL 13
REMARK VINA RESULT:      -6.3     12.811     15.887
REMARK  6 active torsions:
REMARK  status: ('A' for Active; 'I' for Inactive)
REMARK    1  A    between atoms: O2_2  and  C5_12 
REMARK    2  A    between atoms: O3_3  and  C7_14 
REMARK    3  A    between atoms: O5_5  and  C9_16 
REMARK    4  A    between atoms: O6_6  and  C13_20 
REMARK    5  A    between atoms: O7_7  and  C15_22 
REMARK    6  A    between atoms: C3_10  and  C4_11 
ROOT
ATOM      1  O1  UNK A          38.861  22.094  11.041  0.00  0.00    -0.306 OA
ATOM      2  O4  UNK A          37.711  19.644  14.088  0.00  0.00    -0.284 OA
ATOM      3  C1  UNK A          39.289  20.133  12.405  0.00  0.00     0.084 A 
ATOM      4  C2  UNK A          39.627  21.007  11.374  0.00  0.00     0.096 A 
ATOM      5  C3  UNK A          37.709  22.340  11.771  0.00  0.00     0.123 A 
ATOM      6  C5  UNK A          37.268  21.570  12.783  0.00  0.00     0.152 A 
ATOM      7  C6  UNK A          38.061  20.381  13.175  0.00  0.00     0.223 A 
ATOM      8  C7  UNK A          40.108  19.039  12.698  0.00  0.00     0.085 A 
ATOM      9  C8  UNK A          40.786  20.791  10.627  0.00  0.00     0.075 A 
ATOM     10  C9  UNK A          41.606  19.701  10.917  0.00  0.00     0.071 A 
ATOM     11  C11 UNK A          41.267  18.827  11.951  0.00  0.00     0.074 A 
ENDROOT
BRANCH   5  12
ATOM     12  C4  UNK A          36.981  23.536  11.311  0.00  0.00     0.004 A 
ATOM     13  C10 UNK A          37.289  24.789  11.842  0.00  0.00     0.053 A 
ATOM     14  C13 UNK A          36.602  25.921  11.406  0.00  0.00     0.099 A 
ATOM     15  C15 UNK A          35.603  25.800  10.439  0.00  0.00     0.098 A 
ATOM     16  C14 UNK A          35.294  24.548   9.908  0.00  0.00     0.040 A 
ATOM     17  C12 UNK A          35.983  23.416  10.344  0.00  0.00     0.017 A 
BRANCH  14  18
ATOM     18  O6  UNK A          36.911  27.138  11.933  0.00  0.00    -0.358 OA
ATOM     19  H9  UNK A          36.578  27.196  12.843  0.00  0.00     0.217 HD
ENDBRANCH  14  18
BRANCH  15  20
ATOM     20  O7  UNK A          34.925  26.899  10.004  0.00  0.00    -0.358 OA
ATOM     21  H10 UNK A          33.973  26.768  10.133  0.00  0.00     0.217 HD
ENDBRANCH  15  20
ENDBRANCH   5  12
BRANCH   6  22
ATOM     22  O2  UNK A          36.099  21.825  13.468  0.00  0.00    -0.355 OA
ATOM     23  H6  UNK A          36.036  21.241  14.241  0.00  0.00     0.218 HD
ENDBRANCH   6  22
BRANCH   8  24
ATOM     24  O3  UNK A          39.824  18.155  13.695  0.00  0.00    -0.360 OA
ATOM     25  H7  UNK A          40.216  17.290  13.505  0.00  0.00     0.217 HD
ENDBRANCH   8  24
BRANCH  10  26
ATOM     26  O5  UNK A          42.737  19.489  10.191  0.00  0.00    -0.361 OA
ATOM     27  H8  UNK A          42.576  18.767   9.560  0.00  0.00     0.217 HD
ENDBRANCH  10  26
TORSDOF 6
ENDMDL
MODEL 14
REMARK VINA RESULT:      -6.3     10.373     11.993
REMARK  6 active torsions:
REMARK  status: ('A' for Active; 'I' for Inactive)
REMARK    1  A    between atoms: O2_2  and  C5_12 
REMARK    2  A    between atoms: O3_3  and  C7_14 
REMARK    3  A    between atoms: O5_5  and  C9_16 
REMARK    4  A    between atoms: O6_6  and  C13_20 
REMARK    5  A    between atoms: O7_7  and  C15_22 
REMARK    6  A    between atoms: C3_10  and  C4_11 
ROOT
ATOM      1  O1  UNK A          46.367  11.222  -7.899  0.00  0.00    -0.306 OA
ATOM      2  O4  UNK A          47.937   7.638  -9.037  0.00  0.00    -0.284 OA
ATOM      3  C1  UNK A          46.071   9.079  -8.998  0.00  0.00     0.084 A 
ATOM      4  C2  UNK A          45.593  10.320  -8.581  0.00  0.00     0.096 A 
ATOM      5  C3  UNK A          47.685  10.891  -7.626  0.00  0.00     0.123 A 
ATOM      6  C5  UNK A          48.265   9.725  -7.966  0.00  0.00     0.152 A 
ATOM      7  C6  UNK A          47.464   8.716  -8.700  0.00  0.00     0.223 A 
ATOM      8  C7  UNK A          45.235   8.198  -9.689  0.00  0.00     0.085 A 
ATOM      9  C8  UNK A          44.274  10.686  -8.850  0.00  0.00     0.075 A 
ATOM     10  C9  UNK A          43.436   9.809  -9.539  0.00  0.00     0.071 A 
ATOM     11  C11 UNK A          43.917   8.567  -9.957  0.00  0.00     0.074 A 
ENDROOT
BRANCH   5  12
ATOM     12  C4  UNK A          48.403  11.947  -6.891  0.00  0.00     0.004 A 
ATOM     13  C10 UNK A          48.316  12.014  -5.500  0.00  0.00     0.053 A 
ATOM     14  C13 UNK A          48.996  13.012  -4.805  0.00  0.00     0.099 A 
ATOM     15  C15 UNK A          49.763  13.947  -5.500  0.00  0.00     0.098 A 
ATOM     16  C14 UNK A          49.851  13.882  -6.891  0.00  0.00     0.040 A 
ATOM     17  C12 UNK A          49.171  12.882  -7.586  0.00  0.00     0.017 A 
BRANCH  14  18
ATOM     18  O6  UNK A          48.902  13.068  -3.447  0.00  0.00    -0.358 OA
ATOM     19  H9  UNK A          49.752  12.818  -3.049  0.00  0.00     0.217 HD
ENDBRANCH  14  18
BRANCH  15  20
ATOM     20  O7  UNK A          50.434  14.927  -4.832  0.00  0.00    -0.358 OA
ATOM     21  H10 UNK A          51.040  14.528  -4.188  0.00  0.00     0.217 HD
ENDBRANCH  15  20
ENDBRANCH   5  12
BRANCH   6  22
ATOM     22  O2  UNK A          49.569   9.413  -7.650  0.00  0.00    -0.355 OA
ATOM     23  H6  UNK A          49.588   8.751  -6.940  0.00  0.00     0.218 HD
ENDBRANCH   6  22
BRANCH   8  24
ATOM     24  O3  UNK A          45.652   6.974 -10.119  0.00  0.00    -0.360 OA
ATOM     25  H7  UNK A          44.901   6.451 -10.438  0.00  0.00     0.217 HD
ENDBRANCH   8  24
BRANCH  10  26
ATOM     26  O5  UNK A          42.150  10.164  -9.803  0.00  0.00    -0.361 OA
ATOM     27  H8  UNK A          42.063  11.129  -9.708  0.00  0.00     0.217 HD
ENDBRANCH  10  26
TORSDOF 6
ENDMDL
MODEL 15
REMARK VINA RESULT:      -6.3     21.789     25.938
REMARK  6 active torsions:
REMARK  status: ('A' for Active; 'I' for Inactive)
REMARK    1  A    between atoms: O2_2  and  C5_12 
REMARK    2  A    between atoms: O3_3  and  C7_14 
REMARK    3  A    between atoms: O5_5  and  C9_16 
REMARK    4  A    between atoms: O6_6  and  C13_20 
REMARK    5  A    between atoms: O7_7  and  C15_22 
REMARK    6  A    between atoms: C3_10  and  C4_11 
ROOT
ATOM      1  O1  UNK A          38.826  -9.946   4.856  0.00  0.00    -0.306 OA
ATOM      2  O4  UNK A          36.287 -10.704   1.760  0.00  0.00    -0.284 OA
ATOM      3  C1  UNK A          37.283  -9.107   3.181  0.00  0.00     0.084 A 
ATOM      4  C2  UNK A          38.163  -8.914   4.244  0.00  0.00     0.096 A 
ATOM      5  C3  UNK A          38.622 -11.234   4.388  0.00  0.00     0.123 A 
ATOM      6  C5  UNK A          37.795 -11.556   3.376  0.00  0.00     0.152 A 
ATOM      7  C6  UNK A          37.052 -10.473   2.688  0.00  0.00     0.223 A 
ATOM      8  C7  UNK A          36.634  -8.017   2.597  0.00  0.00     0.085 A 
ATOM      9  C8  UNK A          38.397  -7.628   4.732  0.00  0.00     0.075 A 
ATOM     10  C9  UNK A          37.751  -6.537   4.151  0.00  0.00     0.071 A 
ATOM     11  C11 UNK A          36.870  -6.732   3.086  0.00  0.00     0.074 A 
ENDROOT
BRANCH   5  12
ATOM     12  C4  UNK A          39.394 -12.246   5.131  0.00  0.00     0.004 A 
ATOM     13  C10 UNK A          39.466 -12.186   6.523  0.00  0.00     0.053 A 
ATOM     14  C13 UNK A          40.195 -13.144   7.226  0.00  0.00     0.099 A 
ATOM     15  C15 UNK A          40.854 -14.162   6.537  0.00  0.00     0.098 A 
ATOM     16  C14 UNK A          40.782 -14.223   5.146  0.00  0.00     0.040 A 
ATOM     17  C12 UNK A          40.052 -13.265   4.442  0.00  0.00     0.017 A 
BRANCH  14  18
ATOM     18  O6  UNK A          40.260 -13.074   8.585  0.00  0.00    -0.358 OA
ATOM     19  H9  UNK A          39.967 -13.915   8.971  0.00  0.00     0.217 HD
ENDBRANCH  14  18
BRANCH  15  20
ATOM     20  O7  UNK A          41.569 -15.105   7.214  0.00  0.00    -0.358 OA
ATOM     21  H10 UNK A          41.024 -15.483   7.922  0.00  0.00     0.217 HD
ENDBRANCH  15  20
ENDBRANCH   5  12
BRANCH   6  22
ATOM     22  O2  UNK A          37.589 -12.852   2.955  0.00  0.00    -0.355 OA
ATOM     23  H6  UNK A          38.439 -13.265   2.731  0.00  0.00     0.218 HD
ENDBRANCH   6  22
BRANCH   8  24
ATOM     24  O3  UNK A          35.765  -8.150   1.556  0.00  0.00    -0.360 OA
ATOM     25  H7  UNK A          36.232  -8.071   0.711  0.00  0.00     0.217 HD
ENDBRANCH   8  24
BRANCH  10  26
ATOM     26  O5  UNK A          37.978  -5.282   4.625  0.00  0.00    -0.361 OA
ATOM     27  H8  UNK A          38.173  -4.692   3.876  0.00  0.00     0.217 HD
ENDBRANCH  10  26
TORSDOF 6
ENDMDL
MODEL 16
REMARK VINA RESULT:      -6.3     22.188     23.087
REMARK  6 active torsions:
REMARK  status: ('A' for Active; 'I' for Inactive)
REMARK    1  A    between atoms: O2_2  and  C5_12 
REMARK    2  A    between atoms: O3_3  and  C7_14 
REMARK    3  A    between atoms: O5_5  and  C9_16 
REMARK    4  A    between atoms: O6_6  and  C13_20 
REMARK    5  A    between atoms: O7_7  and  C15_22 
REMARK    6  A    between atoms: C3_10  and  C4_11 
ROOT
ATOM      1  O1  UNK A          38.408  -6.626  -7.119  0.00  0.00    -0.306 OA
ATOM      2  O4  UNK A          36.583  -7.578  -3.602  0.00  0.00    -0.284 OA
ATOM      3  C1  UNK A          36.360  -6.861  -5.837  0.00  0.00     0.084 A 
ATOM      4  C2  UNK A          37.044  -6.549  -7.011  0.00  0.00     0.096 A 
ATOM      5  C3  UNK A          39.136  -7.046  -6.017  0.00  0.00     0.123 A 
ATOM      6  C5  UNK A          38.600  -7.369  -4.826  0.00  0.00     0.152 A 
ATOM      7  C6  UNK A          37.128  -7.295  -4.660  0.00  0.00     0.223 A 
ATOM      8  C7  UNK A          34.968  -6.763  -5.785  0.00  0.00     0.085 A 
ATOM      9  C8  UNK A          36.337  -6.132  -8.140  0.00  0.00     0.075 A 
ATOM     10  C9  UNK A          34.947  -6.033  -8.092  0.00  0.00     0.071 A 
ATOM     11  C11 UNK A          34.264  -6.347  -6.915  0.00  0.00     0.074 A 
ENDROOT
BRANCH   5  12
ATOM     12  C4  UNK A          40.588  -7.085  -6.268  0.00  0.00     0.004 A 
ATOM     13  C10 UNK A          41.093  -7.830  -7.335  0.00  0.00     0.053 A 
ATOM     14  C13 UNK A          42.466  -7.865  -7.573  0.00  0.00     0.099 A 
ATOM     15  C15 UNK A          43.336  -7.158  -6.743  0.00  0.00     0.098 A 
ATOM     16  C14 UNK A          42.832  -6.413  -5.676  0.00  0.00     0.040 A 
ATOM     17  C12 UNK A          41.458  -6.377  -5.439  0.00  0.00     0.017 A 
BRANCH  14  18
ATOM     18  O6  UNK A          42.948  -8.596  -8.616  0.00  0.00    -0.358 OA
ATOM     19  H9  UNK A          43.068  -8.024  -9.391  0.00  0.00     0.217 HD
ENDBRANCH  14  18
BRANCH  15  20
ATOM     20  O7  UNK A          44.680  -7.183  -6.966  0.00  0.00    -0.358 OA
ATOM     21  H10 UNK A          44.900  -7.921  -7.557  0.00  0.00     0.217 HD
ENDBRANCH  15  20
ENDBRANCH   5  12
BRANCH   6  22
ATOM     22  O2  UNK A          39.356  -7.752  -3.739  0.00  0.00    -0.355 OA
ATOM     23  H6  UNK A          38.883  -7.542  -2.918  0.00  0.00     0.218 HD
ENDBRANCH   6  22
BRANCH   8  24
ATOM     24  O3  UNK A          34.252  -7.056  -4.663  0.00  0.00    -0.360 OA
ATOM     25  H7  UNK A          33.511  -7.643  -4.877  0.00  0.00     0.217 HD
ENDBRANCH   8  24
BRANCH  10  26
ATOM     26  O5  UNK A          34.256  -5.627  -9.191  0.00  0.00    -0.361 OA
ATOM     27  H8  UNK A          33.368  -6.023  -9.170  0.00  0.00     0.217 HD
ENDBRANCH  10  26
TORSDOF 6
ENDMDL
MODEL 17
REMARK VINA RESULT:      -6.3     15.571     17.926
REMARK  6 active torsions:
REMARK  status: ('A' for Active; 'I' for Inactive)
REMARK    1  A    between atoms: O2_2  and  C5_12 
REMARK    2  A    between atoms: O3_3  and  C7_14 
REMARK    3  A    between atoms: O5_5  and  C9_16 
REMARK    4  A    between atoms: O6_6  and  C13_20 
REMARK    5  A    between atoms: O7_7  and  C15_22 
REMARK    6  A    between atoms: C3_10  and  C4_11 
ROOT
ATOM      1  O1  UNK A          43.940  -0.057   9.158  0.00  0.00    -0.306 OA
ATOM      2  O4  UNK A          40.960   2.078   7.377  0.00  0.00    -0.284 OA
ATOM      3  C1  UNK A          41.581   0.186   8.641  0.00  0.00     0.084 A 
ATOM      4  C2  UNK A          42.645  -0.498   9.227  0.00  0.00     0.096 A 
ATOM      5  C3  UNK A          44.201   1.128   8.487  0.00  0.00     0.123 A 
ATOM      6  C5  UNK A          43.268   1.878   7.872  0.00  0.00     0.152 A 
ATOM      7  C6  UNK A          41.853   1.437   7.916  0.00  0.00     0.223 A 
ATOM      8  C7  UNK A          40.280  -0.312   8.743  0.00  0.00     0.085 A 
ATOM      9  C8  UNK A          42.412  -1.688   9.918  0.00  0.00     0.075 A 
ATOM     10  C9  UNK A          41.115  -2.189  10.022  0.00  0.00     0.071 A 
ATOM     11  C11 UNK A          40.051  -1.502   9.435  0.00  0.00     0.074 A 
ENDROOT
BRANCH   5  12
ATOM     12  C4  UNK A          45.630   1.487   8.488  0.00  0.00     0.004 A 
ATOM     13  C10 UNK A          46.293   1.722   7.283  0.00  0.00     0.053 A 
ATOM     14  C13 UNK A          47.644   2.063   7.285  0.00  0.00     0.099 A 
ATOM     15  C15 UNK A          48.336   2.167   8.492  0.00  0.00     0.098 A 
ATOM     16  C14 UNK A          47.674   1.932   9.697  0.00  0.00     0.040 A 
ATOM     17  C12 UNK A          46.322   1.592   9.696  0.00  0.00     0.017 A 
BRANCH  14  18
ATOM     18  O6  UNK A          48.281   2.290   6.102  0.00  0.00    -0.358 OA
ATOM     19  H9  UNK A          48.736   1.481   5.814  0.00  0.00     0.217 HD
ENDBRANCH  14  18
BRANCH  15  20
ATOM     20  O7  UNK A          49.657   2.501   8.507  0.00  0.00    -0.358 OA
ATOM     21  H10 UNK A          50.196   1.713   8.334  0.00  0.00     0.217 HD
ENDBRANCH  15  20
ENDBRANCH   5  12
BRANCH   6  22
ATOM     22  O2  UNK A          43.565   3.035   7.185  0.00  0.00    -0.355 OA
ATOM     23  H6  UNK A          44.408   3.399   7.501  0.00  0.00     0.218 HD
ENDBRANCH   6  22
BRANCH   8  24
ATOM     24  O3  UNK A          39.206   0.317   8.189  0.00  0.00    -0.360 OA
ATOM     25  H7  UNK A          38.749  -0.271   7.569  0.00  0.00     0.217 HD
ENDBRANCH   8  24
BRANCH  10  26
ATOM     26  O5  UNK A          40.886  -3.348  10.695  0.00  0.00    -0.361 OA
ATOM     27  H8  UNK A          40.077  -3.251  11.227  0.00  0.00     0.217 HD
ENDBRANCH  10  26
TORSDOF 6
ENDMDL
MODEL 18
REMARK VINA RESULT:      -6.2     14.975     16.969
REMARK  6 active torsions:
REMARK  status: ('A' for Active; 'I' for Inactive)
REMARK    1  A    between atoms: O2_2  and  C5_12 
REMARK    2  A    between atoms: O3_3  and  C7_14 
REMARK    3  A    between atoms: O5_5  and  C9_16 
REMARK    4  A    between atoms: O6_6  and  C13_20 
REMARK    5  A    between atoms: O7_7  and  C15_22 
REMARK    6  A    between atoms: C3_10  and  C4_11 
ROOT
ATOM      1  O1  UNK A          42.826   2.097   7.723  0.00  0.00    -0.306 OA
ATOM      2  O4  UNK A          42.290  -1.352   9.828  0.00  0.00    -0.284 OA
ATOM      3  C1  UNK A          41.352   0.305   8.435  0.00  0.00     0.084 A 
ATOM      4  C2  UNK A          41.600   1.485   7.737  0.00  0.00     0.096 A 
ATOM      5  C3  UNK A          43.867   1.509   8.424  0.00  0.00     0.123 A 
ATOM      6  C5  UNK A          43.759   0.377   9.143  0.00  0.00     0.152 A 
ATOM      7  C6  UNK A          42.450  -0.318   9.192  0.00  0.00     0.223 A 
ATOM      8  C7  UNK A          40.081  -0.274   8.414  0.00  0.00     0.085 A 
ATOM      9  C8  UNK A          40.574   2.096   7.014  0.00  0.00     0.075 A 
ATOM     10  C9  UNK A          39.303   1.521   6.991  0.00  0.00     0.071 A 
ATOM     11  C11 UNK A          39.058   0.338   7.690  0.00  0.00     0.074 A 
ENDROOT
BRANCH   5  12
ATOM     12  C4  UNK A          45.127   2.267   8.326  0.00  0.00     0.004 A 
ATOM     13  C10 UNK A          46.028   1.995   7.296  0.00  0.00     0.053 A 
ATOM     14  C13 UNK A          47.219   2.713   7.203  0.00  0.00     0.099 A 
ATOM     15  C15 UNK A          47.511   3.703   8.142  0.00  0.00     0.098 A 
ATOM     16  C14 UNK A          46.611   3.975   9.172  0.00  0.00     0.040 A 
ATOM     17  C12 UNK A          45.419   3.257   9.264  0.00  0.00     0.017 A 
BRANCH  14  18
ATOM     18  O6  UNK A          48.091   2.438   6.194  0.00  0.00    -0.358 OA
ATOM     19  H9  UNK A          48.958   2.829   6.393  0.00  0.00     0.217 HD
ENDBRANCH  14  18
BRANCH  15  20
ATOM     20  O7  UNK A          48.672   4.413   8.060  0.00  0.00    -0.358 OA
ATOM     21  H10 UNK A          49.154   4.161   7.257  0.00  0.00     0.217 HD
ENDBRANCH  15  20
ENDBRANCH   5  12
BRANCH   6  22
ATOM     22  O2  UNK A          44.806  -0.165   9.856  0.00  0.00    -0.355 OA
ATOM     23  H6  UNK A          45.408  -0.633   9.254  0.00  0.00     0.218 HD
ENDBRANCH   6  22
BRANCH   8  24
ATOM     24  O3  UNK A          39.787  -1.426   9.079  0.00  0.00    -0.360 OA
ATOM     25  H7  UNK A          40.522  -1.683   9.656  0.00  0.00     0.217 HD
ENDBRANCH   8  24
BRANCH  10  26
ATOM     26  O5  UNK A          38.303   2.115   6.286  0.00  0.00    -0.361 OA
ATOM     27  H8  UNK A          38.120   2.989   6.672  0.00  0.00     0.217 HD
ENDBRANCH  10  26
TORSDOF 6
ENDMDL
MODEL 19
REMARK VINA RESULT:      -6.2     15.883     18.490
REMARK  6 active torsions:
REMARK  status: ('A' for Active; 'I' for Inactive)
REMARK    1  A    between atoms: O2_2  and  C5_12 
REMARK    2  A    between atoms: O3_3  and  C7_14 
REMARK    3  A    between atoms: O5_5  and  C9_16 
REMARK    4  A    between atoms: O6_6  and  C13_20 
REMARK    5  A    between atoms: O7_7  and  C15_22 
REMARK    6  A    between atoms: C3_10  and  C4_11 
ROOT
ATOM      1  O1  UNK A          40.816  -1.428   8.571  0.00  0.00    -0.306 OA
ATOM      2  O4  UNK A          39.197   2.275   8.047  0.00  0.00    -0.284 OA
ATOM      3  C1  UNK A          41.052   0.983   8.719  0.00  0.00     0.084 A 
ATOM      4  C2  UNK A          41.547  -0.310   8.877  0.00  0.00     0.096 A 
ATOM      5  C3  UNK A          39.534  -1.264   8.071  0.00  0.00     0.123 A 
ATOM      6  C5  UNK A          38.936  -0.073   7.879  0.00  0.00     0.152 A 
ATOM      7  C6  UNK A          39.687   1.164   8.201  0.00  0.00     0.223 A 
ATOM      8  C7  UNK A          41.843   2.087   9.049  0.00  0.00     0.085 A 
ATOM      9  C8  UNK A          42.838  -0.507   9.369  0.00  0.00     0.075 A 
ATOM     10  C9  UNK A          43.631   0.592   9.699  0.00  0.00     0.071 A 
ATOM     11  C11 UNK A          43.133   1.886   9.539  0.00  0.00     0.074 A 
ENDROOT
BRANCH   5  12
ATOM     12  C4  UNK A          38.861  -2.543   7.784  0.00  0.00     0.004 A 
ATOM     13  C10 UNK A          38.910  -3.086   6.500  0.00  0.00     0.053 A 
ATOM     14  C13 UNK A          38.274  -4.297   6.229  0.00  0.00     0.099 A 
ATOM     15  C15 UNK A          37.586  -4.965   7.243  0.00  0.00     0.098 A 
ATOM     16  C14 UNK A          37.536  -4.422   8.527  0.00  0.00     0.040 A 
ATOM     17  C12 UNK A          38.173  -3.211   8.798  0.00  0.00     0.017 A 
BRANCH  14  18
ATOM     18  O6  UNK A          38.328  -4.816   4.972  0.00  0.00    -0.358 OA
ATOM     19  H9  UNK A          39.185  -5.252   4.833  0.00  0.00     0.217 HD
ENDBRANCH  14  18
BRANCH  15  20
ATOM     20  O7  UNK A          36.961  -6.149   6.991  0.00  0.00    -0.358 OA
ATOM     21  H10 UNK A          36.159  -6.218   7.532  0.00  0.00     0.217 HD
ENDBRANCH  15  20
ENDBRANCH   5  12
BRANCH   6  22
ATOM     22  O2  UNK A          37.647   0.055   7.411  0.00  0.00    -0.355 OA
ATOM     23  H6  UNK A          37.032  -0.404   8.007  0.00  0.00     0.218 HD
ENDBRANCH   6  22
BRANCH   8  24
ATOM     24  O3  UNK A          41.407   3.370   8.913  0.00  0.00    -0.360 OA
ATOM     25  H7  UNK A          40.853   3.460   8.123  0.00  0.00     0.217 HD
ENDBRANCH   8  24
BRANCH  10  26
ATOM     26  O5  UNK A          44.890   0.402  10.178  0.00  0.00    -0.361 OA
ATOM     27  H8  UNK A          44.860   0.389  11.150  0.00  0.00     0.217 HD
ENDBRANCH  10  26
TORSDOF 6
ENDMDL
