MODEL 1
REMARK VINA RESULT:      -7.5      0.000      0.000
REMARK  6 active torsions:
REMARK  status: ('A' for Active; 'I' for Inactive)
REMARK    1  A    between atoms: O2_2  and  C5_12 
REMARK    2  A    between atoms: O3_3  and  C7_14 
REMARK    3  A    between atoms: O5_5  and  C9_16 
REMARK    4  A    between atoms: O6_6  and  C13_20 
REMARK    5  A    between atoms: O7_7  and  C15_22 
REMARK    6  A    between atoms: C3_10  and  C4_11 
ROOT
ATOM      1  O1  UNK A          39.621  15.123   0.031  0.00  0.00    -0.306 OA
ATOM      2  O4  UNK A          41.756  15.730  -3.386  0.00  0.00    -0.284 OA
ATOM      3  C1  UNK A          40.199  16.572  -1.828  0.00  0.00     0.084 A 
ATOM      4  C2  UNK A          39.496  16.302  -0.655  0.00  0.00     0.096 A 
ATOM      5  C3  UNK A          40.493  14.162  -0.456  0.00  0.00     0.123 A 
ATOM      6  C5  UNK A          41.223  14.294  -1.579  0.00  0.00     0.152 A 
ATOM      7  C6  UNK A          41.117  15.552  -2.358  0.00  0.00     0.223 A 
ATOM      8  C7  UNK A          40.031  17.793  -2.485  0.00  0.00     0.085 A 
ATOM      9  C8  UNK A          38.618  17.253  -0.133  0.00  0.00     0.075 A 
ATOM     10  C9  UNK A          38.448  18.474  -0.787  0.00  0.00     0.071 A 
ATOM     11  C11 UNK A          39.153  18.742  -1.961  0.00  0.00     0.074 A 
ENDROOT
BRANCH   5  12
ATOM     12  C4  UNK A          40.532  12.946   0.374  0.00  0.00     0.004 A 
ATOM     13  C10 UNK A          40.431  13.043   1.762  0.00  0.00     0.053 A 
ATOM     14  C13 UNK A          40.466  11.892   2.547  0.00  0.00     0.099 A 
ATOM     15  C15 UNK A          40.605  10.641   1.945  0.00  0.00     0.098 A 
ATOM     16  C14 UNK A          40.706  10.543   0.557  0.00  0.00     0.040 A 
ATOM     17  C12 UNK A          40.670  11.695  -0.228  0.00  0.00     0.017 A 
BRANCH  14  18
ATOM     18  O6  UNK A          40.368  12.000   3.901  0.00  0.00    -0.358 OA
ATOM     19  H9  UNK A          41.088  12.556   4.240  0.00  0.00     0.217 HD
ENDBRANCH  14  18
BRANCH  15  20
ATOM     20  O7  UNK A          40.639   9.508   2.702  0.00  0.00    -0.358 OA
ATOM     21  H10 UNK A          41.342   8.921   2.380  0.00  0.00     0.217 HD
ENDBRANCH  15  20
ENDBRANCH   5  12
BRANCH   6  22
ATOM     22  O2  UNK A          42.057  13.306  -2.055  0.00  0.00    -0.355 OA
ATOM     23  H6  UNK A          42.731  13.695  -2.637  0.00  0.00     0.218 HD
ENDBRANCH   6  22
BRANCH   8  24
ATOM     24  O3  UNK A          40.694  18.106  -3.634  0.00  0.00    -0.360 OA
ATOM     25  H7  UNK A          40.072  18.191  -4.373  0.00  0.00     0.217 HD
ENDBRANCH   8  24
BRANCH  10  26
ATOM     26  O5  UNK A          37.593  19.402  -0.281  0.00  0.00    -0.361 OA
ATOM     27  H8  UNK A          36.979  18.965   0.335  0.00  0.00     0.217 HD
ENDBRANCH  10  26
TORSDOF 6
ENDMDL
MODEL 2
REMARK VINA RESULT:      -7.2      1.213      6.452
REMARK  6 active torsions:
REMARK  status: ('A' for Active; 'I' for Inactive)
REMARK    1  A    between atoms: O2_2  and  C5_12 
REMARK    2  A    between atoms: O3_3  and  C7_14 
REMARK    3  A    between atoms: O5_5  and  C9_16 
REMARK    4  A    between atoms: O6_6  and  C13_20 
REMARK    5  A    between atoms: O7_7  and  C15_22 
REMARK    6  A    between atoms: C3_10  and  C4_11 
ROOT
ATOM      1  O1  UNK A          39.757  14.340   0.190  0.00  0.00    -0.306 OA
ATOM      2  O4  UNK A          42.340  12.563  -2.414  0.00  0.00    -0.284 OA
ATOM      3  C1  UNK A          40.973  12.357  -0.504  0.00  0.00     0.084 A 
ATOM      4  C2  UNK A          40.097  13.022   0.352  0.00  0.00     0.096 A 
ATOM      5  C3  UNK A          40.298  15.036  -0.880  0.00  0.00     0.123 A 
ATOM      6  C5  UNK A          41.160  14.514  -1.772  0.00  0.00     0.152 A 
ATOM      7  C6  UNK A          41.561  13.093  -1.633  0.00  0.00     0.223 A 
ATOM      8  C7  UNK A          41.284  11.012  -0.287  0.00  0.00     0.085 A 
ATOM      9  C8  UNK A          39.528  12.346   1.432  0.00  0.00     0.075 A 
ATOM     10  C9  UNK A          39.836  11.003   1.651  0.00  0.00     0.071 A 
ATOM     11  C11 UNK A          40.713  10.338   0.792  0.00  0.00     0.074 A 
ENDROOT
BRANCH   5  12
ATOM     12  C4  UNK A          39.851  16.439  -0.939  0.00  0.00     0.004 A 
ATOM     13  C10 UNK A          39.064  16.965   0.086  0.00  0.00     0.053 A 
ATOM     14  C13 UNK A          38.643  18.293   0.031  0.00  0.00     0.099 A 
ATOM     15  C15 UNK A          39.007  19.095  -1.051  0.00  0.00     0.098 A 
ATOM     16  C14 UNK A          39.794  18.570  -2.076  0.00  0.00     0.040 A 
ATOM     17  C12 UNK A          40.216  17.242  -2.020  0.00  0.00     0.017 A 
BRANCH  14  18
ATOM     18  O6  UNK A          37.874  18.795   1.036  0.00  0.00    -0.358 OA
ATOM     19  H9  UNK A          37.814  18.149   1.758  0.00  0.00     0.217 HD
ENDBRANCH  14  18
BRANCH  15  20
ATOM     20  O7  UNK A          38.602  20.395  -1.116  0.00  0.00    -0.358 OA
ATOM     21  H10 UNK A          38.629  20.701  -2.036  0.00  0.00     0.217 HD
ENDBRANCH  15  20
ENDBRANCH   5  12
BRANCH   6  22
ATOM     22  O2  UNK A          41.706  15.243  -2.806  0.00  0.00    -0.355 OA
ATOM     23  H6  UNK A          42.307  14.682  -3.324  0.00  0.00     0.218 HD
ENDBRANCH   6  22
BRANCH   8  24
ATOM     24  O3  UNK A          42.134  10.316  -1.094  0.00  0.00    -0.360 OA
ATOM     25  H7  UNK A          42.716  10.921  -1.577  0.00  0.00     0.217 HD
ENDBRANCH   8  24
BRANCH  10  26
ATOM     26  O5  UNK A          39.282  10.342   2.702  0.00  0.00    -0.361 OA
ATOM     27  H8  UNK A          38.497   9.857   2.394  0.00  0.00     0.217 HD
ENDBRANCH  10  26
TORSDOF 6
ENDMDL
MODEL 3
REMARK VINA RESULT:      -7.0      2.074      3.063
REMARK  6 active torsions:
REMARK  status: ('A' for Active; 'I' for Inactive)
REMARK    1  A    between atoms: O2_2  and  C5_12 
REMARK    2  A    between atoms: O3_3  and  C7_14 
REMARK    3  A    between atoms: O5_5  and  C9_16 
REMARK    4  A    between atoms: O6_6  and  C13_20 
REMARK    5  A    between atoms: O7_7  and  C15_22 
REMARK    6  A    between atoms: C3_10  and  C4_11 
ROOT
ATOM      1  O1  UNK A          39.290  17.418  -0.144  0.00  0.00    -0.306 OA
ATOM      2  O4  UNK A          40.625  18.949  -3.677  0.00  0.00    -0.284 OA
ATOM      3  C1  UNK A          39.795  19.361  -1.509  0.00  0.00     0.084 A 
ATOM      4  C2  UNK A          39.347  18.775  -0.326  0.00  0.00     0.096 A 
ATOM      5  C3  UNK A          39.707  16.594  -1.177  0.00  0.00     0.123 A 
ATOM      6  C5  UNK A          40.152  17.031  -2.370  0.00  0.00     0.152 A 
ATOM      7  C6  UNK A          40.227  18.492  -2.614  0.00  0.00     0.223 A 
ATOM      8  C7  UNK A          39.830  20.752  -1.637  0.00  0.00     0.085 A 
ATOM      9  C8  UNK A          38.929  19.579   0.736  0.00  0.00     0.075 A 
ATOM     10  C9  UNK A          38.964  20.968   0.611  0.00  0.00     0.071 A 
ATOM     11  C11 UNK A          39.413  21.552  -0.574  0.00  0.00     0.074 A 
ENDROOT
BRANCH   5  12
ATOM     12  C4  UNK A          39.595  15.161  -0.852  0.00  0.00     0.004 A 
ATOM     13  C10 UNK A          40.633  14.512  -0.184  0.00  0.00     0.053 A 
ATOM     14  C13 UNK A          40.526  13.157   0.126  0.00  0.00     0.099 A 
ATOM     15  C15 UNK A          39.379  12.449  -0.235  0.00  0.00     0.098 A 
ATOM     16  C14 UNK A          38.340  13.097  -0.904  0.00  0.00     0.040 A 
ATOM     17  C12 UNK A          38.448  14.453  -1.212  0.00  0.00     0.017 A 
BRANCH  14  18
ATOM     18  O6  UNK A          41.546  12.534   0.777  0.00  0.00    -0.358 OA
ATOM     19  H9  UNK A          41.845  13.083   1.521  0.00  0.00     0.217 HD
ENDBRANCH  14  18
BRANCH  15  20
ATOM     20  O7  UNK A          39.262  11.124   0.063  0.00  0.00    -0.358 OA
ATOM     21  H10 UNK A          38.427  10.967   0.531  0.00  0.00     0.217 HD
ENDBRANCH  15  20
ENDBRANCH   5  12
BRANCH   6  22
ATOM     22  O2  UNK A          40.530  16.184  -3.389  0.00  0.00    -0.355 OA
ATOM     23  H6  UNK A          40.344  16.597  -4.248  0.00  0.00     0.218 HD
ENDBRANCH   6  22
BRANCH   8  24
ATOM     24  O3  UNK A          40.259  21.374  -2.771  0.00  0.00    -0.360 OA
ATOM     25  H7  UNK A          39.571  21.962  -3.117  0.00  0.00     0.217 HD
ENDBRANCH   8  24
BRANCH  10  26
ATOM     26  O5  UNK A          38.557  21.753   1.645  0.00  0.00    -0.361 OA
ATOM     27  H8  UNK A          37.648  21.510   1.888  0.00  0.00     0.217 HD
ENDBRANCH  10  26
TORSDOF 6
ENDMDL
MODEL 4
REMARK VINA RESULT:      -6.8      1.479      2.348
REMARK  6 active torsions:
REMARK  status: ('A' for Active; 'I' for Inactive)
REMARK    1  A    between atoms: O2_2  and  C5_12 
REMARK    2  A    between atoms: O3_3  and  C7_14 
REMARK    3  A    between atoms: O5_5  and  C9_16 
REMARK    4  A    between atoms: O6_6  and  C13_20 
REMARK    5  A    between atoms: O7_7  and  C15_22 
REMARK    6  A    between atoms: C3_10  and  C4_11 
ROOT
ATOM      1  O1  UNK A          39.521  15.986  -0.052  0.00  0.00    -0.306 OA
ATOM      2  O4  UNK A          40.881  17.726  -3.477  0.00  0.00    -0.284 OA
ATOM      3  C1  UNK A          39.716  17.967  -1.440  0.00  0.00     0.084 A 
ATOM      4  C2  UNK A          39.278  17.313  -0.290  0.00  0.00     0.096 A 
ATOM      5  C3  UNK A          40.246  15.267  -0.989  0.00  0.00     0.123 A 
ATOM      6  C5  UNK A          40.718  15.775  -2.142  0.00  0.00     0.152 A 
ATOM      7  C6  UNK A          40.474  17.206  -2.445  0.00  0.00     0.223 A 
ATOM      8  C7  UNK A          39.437  19.322  -1.631  0.00  0.00     0.085 A 
ATOM      9  C8  UNK A          38.554  18.013   0.677  0.00  0.00     0.075 A 
ATOM     10  C9  UNK A          38.274  19.366   0.490  0.00  0.00     0.071 A 
ATOM     11  C11 UNK A          38.714  20.019  -0.662  0.00  0.00     0.074 A 
ENDROOT
BRANCH   5  12
ATOM     12  C4  UNK A          40.436  13.856  -0.610  0.00  0.00     0.004 A 
ATOM     13  C10 UNK A          41.070  12.976  -1.488  0.00  0.00     0.053 A 
ATOM     14  C13 UNK A          41.251  11.641  -1.128  0.00  0.00     0.099 A 
ATOM     15  C15 UNK A          40.796  11.184   0.109  0.00  0.00     0.098 A 
ATOM     16  C14 UNK A          40.162  12.063   0.987  0.00  0.00     0.040 A 
ATOM     17  C12 UNK A          39.982  13.399   0.628  0.00  0.00     0.017 A 
BRANCH  14  18
ATOM     18  O6  UNK A          41.870  10.791  -1.994  0.00  0.00    -0.358 OA
ATOM     19  H9  UNK A          42.818  10.996  -2.034  0.00  0.00     0.217 HD
ENDBRANCH  14  18
BRANCH  15  20
ATOM     20  O7  UNK A          40.968   9.882   0.473  0.00  0.00    -0.358 OA
ATOM     21  H10 UNK A          41.476   9.416  -0.210  0.00  0.00     0.217 HD
ENDBRANCH  15  20
ENDBRANCH   5  12
BRANCH   6  22
ATOM     22  O2  UNK A          41.408  15.025  -3.069  0.00  0.00    -0.355 OA
ATOM     23  H6  UNK A          40.782  14.559  -3.648  0.00  0.00     0.218 HD
ENDBRANCH   6  22
BRANCH   8  24
ATOM     24  O3  UNK A          39.843  20.008  -2.737  0.00  0.00    -0.360 OA
ATOM     25  H7  UNK A          39.759  19.456  -3.529  0.00  0.00     0.217 HD
ENDBRANCH   8  24
BRANCH  10  26
ATOM     26  O5  UNK A          37.569  20.050   1.431  0.00  0.00    -0.361 OA
ATOM     27  H8  UNK A          37.824  20.988   1.398  0.00  0.00     0.217 HD
ENDBRANCH  10  26
TORSDOF 6
ENDMDL
MODEL 5
REMARK VINA RESULT:      -6.3      2.711      7.348
REMARK  6 active torsions:
REMARK  status: ('A' for Active; 'I' for Inactive)
REMARK    1  A    between atoms: O2_2  and  C5_12 
REMARK    2  A    between atoms: O3_3  and  C7_14 
REMARK    3  A    between atoms: O5_5  and  C9_16 
REMARK    4  A    between atoms: O6_6  and  C13_20 
REMARK    5  A    between atoms: O7_7  and  C15_22 
REMARK    6  A    between atoms: C3_10  and  C4_11 
ROOT
ATOM      1  O1  UNK A          40.552  17.041  -1.349  0.00  0.00    -0.306 OA
ATOM      2  O4  UNK A          36.995  15.163  -0.692  0.00  0.00    -0.284 OA
ATOM      3  C1  UNK A          39.291  14.973  -1.195  0.00  0.00     0.084 A 
ATOM      4  C2  UNK A          40.476  15.674  -1.410  0.00  0.00     0.096 A 
ATOM      5  C3  UNK A          39.403  17.755  -1.046  0.00  0.00     0.123 A 
ATOM      6  C5  UNK A          38.197  17.200  -0.824  0.00  0.00     0.152 A 
ATOM      7  C6  UNK A          38.066  15.725  -0.886  0.00  0.00     0.223 A 
ATOM      8  C7  UNK A          39.274  13.578  -1.272  0.00  0.00     0.085 A 
ATOM      9  C8  UNK A          41.651  14.983  -1.708  0.00  0.00     0.075 A 
ATOM     10  C9  UNK A          41.638  13.590  -1.785  0.00  0.00     0.071 A 
ATOM     11  C11 UNK A          40.450  12.890  -1.568  0.00  0.00     0.074 A 
ENDROOT
BRANCH   5  12
ATOM     12  C4  UNK A          39.623  19.211  -1.011  0.00  0.00     0.004 A 
ATOM     13  C10 UNK A          39.231  19.951   0.105  0.00  0.00     0.053 A 
ATOM     14  C13 UNK A          39.441  21.329   0.138  0.00  0.00     0.099 A 
ATOM     15  C15 UNK A          40.041  21.969  -0.947  0.00  0.00     0.098 A 
ATOM     16  C14 UNK A          40.432  21.230  -2.063  0.00  0.00     0.040 A 
ATOM     17  C12 UNK A          40.224  19.851  -2.096  0.00  0.00     0.017 A 
BRANCH  14  18
ATOM     18  O6  UNK A          39.053  22.040   1.232  0.00  0.00    -0.358 OA
ATOM     19  H9  UNK A          39.532  22.884   1.262  0.00  0.00     0.217 HD
ENDBRANCH  14  18
BRANCH  15  20
ATOM     20  O7  UNK A          40.252  23.315  -0.926  0.00  0.00    -0.358 OA
ATOM     21  H10 UNK A          40.398  23.637  -1.829  0.00  0.00     0.217 HD
ENDBRANCH  15  20
ENDBRANCH   5  12
BRANCH   6  22
ATOM     22  O2  UNK A          37.066  17.941  -0.557  0.00  0.00    -0.355 OA
ATOM     23  H6  UNK A          36.410  17.389  -0.100  0.00  0.00     0.218 HD
ENDBRANCH   6  22
BRANCH   8  24
ATOM     24  O3  UNK A          38.143  12.845  -1.069  0.00  0.00    -0.360 OA
ATOM     25  H7  UNK A          37.359  13.348  -1.337  0.00  0.00     0.217 HD
ENDBRANCH   8  24
BRANCH  10  26
ATOM     26  O5  UNK A          42.783  12.915  -2.074  0.00  0.00    -0.361 OA
ATOM     27  H8  UNK A          43.545  13.458  -1.810  0.00  0.00     0.217 HD
ENDBRANCH  10  26
TORSDOF 6
ENDMDL
MODEL 6
REMARK VINA RESULT:      -6.3     10.139     11.897
REMARK  6 active torsions:
REMARK  status: ('A' for Active; 'I' for Inactive)
REMARK    1  A    between atoms: O2_2  and  C5_12 
REMARK    2  A    between atoms: O3_3  and  C7_14 
REMARK    3  A    between atoms: O5_5  and  C9_16 
REMARK    4  A    between atoms: O6_6  and  C13_20 
REMARK    5  A    between atoms: O7_7  and  C15_22 
REMARK    6  A    between atoms: C3_10  and  C4_11 
ROOT
ATOM      1  O1  UNK A          46.206  11.235  -7.910  0.00  0.00    -0.306 OA
ATOM      2  O4  UNK A          47.860   7.665  -8.972  0.00  0.00    -0.284 OA
ATOM      3  C1  UNK A          45.973   9.080  -9.001  0.00  0.00     0.084 A 
ATOM      4  C2  UNK A          45.466  10.316  -8.608  0.00  0.00     0.096 A 
ATOM      5  C3  UNK A          47.519  10.924  -7.593  0.00  0.00     0.123 A 
ATOM      6  C5  UNK A          48.125   9.764  -7.907  0.00  0.00     0.152 A 
ATOM      7  C6  UNK A          47.362   8.738  -8.657  0.00  0.00     0.223 A 
ATOM      8  C7  UNK A          45.171   8.182  -9.711  0.00  0.00     0.085 A 
ATOM      9  C8  UNK A          44.151  10.662  -8.920  0.00  0.00     0.075 A 
ATOM     10  C9  UNK A          43.347   9.769  -9.629  0.00  0.00     0.071 A 
ATOM     11  C11 UNK A          43.857   8.531 -10.022  0.00  0.00     0.074 A 
ENDROOT
BRANCH   5  12
ATOM     12  C4  UNK A          48.199  11.995  -6.845  0.00  0.00     0.004 A 
ATOM     13  C10 UNK A          48.090  12.055  -5.455  0.00  0.00     0.053 A 
ATOM     14  C13 UNK A          48.735  13.068  -4.747  0.00  0.00     0.099 A 
ATOM     15  C15 UNK A          49.489  14.024  -5.428  0.00  0.00     0.098 A 
ATOM     16  C14 UNK A          49.599  13.965  -6.817  0.00  0.00     0.040 A 
ATOM     17  C12 UNK A          48.954  12.951  -7.526  0.00  0.00     0.017 A 
BRANCH  14  18
ATOM     18  O6  UNK A          48.620  13.117  -3.391  0.00  0.00    -0.358 OA
ATOM     19  H9  UNK A          47.688  13.018  -3.137  0.00  0.00     0.217 HD
ENDBRANCH  14  18
BRANCH  15  20
ATOM     20  O7  UNK A          50.125  15.018  -4.747  0.00  0.00    -0.358 OA
ATOM     21  H10 UNK A          50.535  15.634  -5.374  0.00  0.00     0.217 HD
ENDBRANCH  15  20
ENDBRANCH   5  12
BRANCH   6  22
ATOM     22  O2  UNK A          49.424   9.472  -7.548  0.00  0.00    -0.355 OA
ATOM     23  H6  UNK A          49.614   9.839  -6.669  0.00  0.00     0.218 HD
ENDBRANCH   6  22
BRANCH   8  24
ATOM     24  O3  UNK A          45.618   6.961 -10.118  0.00  0.00    -0.360 OA
ATOM     25  H7  UNK A          45.892   6.427  -9.357  0.00  0.00     0.217 HD
ENDBRANCH   8  24
BRANCH  10  26
ATOM     26  O5  UNK A          42.065  10.104  -9.935  0.00  0.00    -0.361 OA
ATOM     27  H8  UNK A          41.623  10.430  -9.132  0.00  0.00     0.217 HD
ENDBRANCH  10  26
TORSDOF 6
ENDMDL
MODEL 7
REMARK VINA RESULT:      -6.2      1.321      6.625
REMARK  6 active torsions:
REMARK  status: ('A' for Active; 'I' for Inactive)
REMARK    1  A    between atoms: O2_2  and  C5_12 
REMARK    2  A    between atoms: O3_3  and  C7_14 
REMARK    3  A    between atoms: O5_5  and  C9_16 
REMARK    4  A    between atoms: O6_6  and  C13_20 
REMARK    5  A    between atoms: O7_7  and  C15_22 
REMARK    6  A    between atoms: C3_10  and  C4_11 
ROOT
ATOM      1  O1  UNK A          40.225  13.959   0.924  0.00  0.00    -0.306 OA
ATOM      2  O4  UNK A          41.604  10.463  -0.653  0.00  0.00    -0.284 OA
ATOM      3  C1  UNK A          40.790  11.619   1.235  0.00  0.00     0.084 A 
ATOM      4  C2  UNK A          40.328  12.844   1.713  0.00  0.00     0.096 A 
ATOM      5  C3  UNK A          40.585  13.860  -0.412  0.00  0.00     0.123 A 
ATOM      6  C5  UNK A          41.052  12.741  -0.994  0.00  0.00     0.152 A 
ATOM      7  C6  UNK A          41.186  11.511  -0.178  0.00  0.00     0.223 A 
ATOM      8  C7  UNK A          40.875  10.516   2.088  0.00  0.00     0.085 A 
ATOM      9  C8  UNK A          39.950  12.972   3.050  0.00  0.00     0.075 A 
ATOM     10  C9  UNK A          40.033  11.873   3.905  0.00  0.00     0.071 A 
ATOM     11  C11 UNK A          40.495  10.647   3.423  0.00  0.00     0.074 A 
ENDROOT
BRANCH   5  12
ATOM     12  C4  UNK A          40.426  15.128  -1.145  0.00  0.00     0.004 A 
ATOM     13  C10 UNK A          39.859  16.235  -0.514  0.00  0.00     0.053 A 
ATOM     14  C13 UNK A          39.710  17.435  -1.208  0.00  0.00     0.099 A 
ATOM     15  C15 UNK A          40.127  17.528  -2.536  0.00  0.00     0.098 A 
ATOM     16  C14 UNK A          40.694  16.421  -3.169  0.00  0.00     0.040 A 
ATOM     17  C12 UNK A          40.844  15.221  -2.474  0.00  0.00     0.017 A 
BRANCH  14  18
ATOM     18  O6  UNK A          39.154  18.508  -0.581  0.00  0.00    -0.358 OA
ATOM     19  H9  UNK A          39.478  19.329  -0.986  0.00  0.00     0.217 HD
ENDBRANCH  14  18
BRANCH  15  20
ATOM     20  O7  UNK A          39.989  18.695  -3.225  0.00  0.00    -0.358 OA
ATOM     21  H10 UNK A          40.824  19.188  -3.206  0.00  0.00     0.217 HD
ENDBRANCH  15  20
ENDBRANCH   5  12
BRANCH   6  22
ATOM     22  O2  UNK A          41.432  12.684  -2.318  0.00  0.00    -0.355 OA
ATOM     23  H6  UNK A          40.693  12.364  -2.860  0.00  0.00     0.218 HD
ENDBRANCH   6  22
BRANCH   8  24
ATOM     24  O3  UNK A          41.320   9.297   1.670  0.00  0.00    -0.360 OA
ATOM     25  H7  UNK A          41.984   9.398   0.971  0.00  0.00     0.217 HD
ENDBRANCH   8  24
BRANCH  10  26
ATOM     26  O5  UNK A          39.664  11.996   5.208  0.00  0.00    -0.361 OA
ATOM     27  H8  UNK A          39.621  11.111   5.610  0.00  0.00     0.217 HD
ENDBRANCH  10  26
TORSDOF 6
ENDMDL
MODEL 8
REMARK VINA RESULT:      -5.8      9.861     11.896
REMARK  6 active torsions:
REMARK  status: ('A' for Active; 'I' for Inactive)
REMARK    1  A    between atoms: O2_2  and  C5_12 
REMARK    2  A    between atoms: O3_3  and  C7_14 
REMARK    3  A    between atoms: O5_5  and  C9_16 
REMARK    4  A    between atoms: O6_6  and  C13_20 
REMARK    5  A    between atoms: O7_7  and  C15_22 
REMARK    6  A    between atoms: C3_10  and  C4_11 
ROOT
ATOM      1  O1  UNK A          45.890  11.137  -7.923  0.00  0.00    -0.306 OA
ATOM      2  O4  UNK A          47.734   7.726  -9.177  0.00  0.00    -0.284 OA
ATOM      3  C1  UNK A          45.819   9.101  -9.242  0.00  0.00     0.084 A 
ATOM      4  C2  UNK A          45.243  10.282  -8.776  0.00  0.00     0.096 A 
ATOM      5  C3  UNK A          47.177  10.820  -7.517  0.00  0.00     0.123 A 
ATOM      6  C5  UNK A          47.841   9.710  -7.886  0.00  0.00     0.152 A 
ATOM      7  C6  UNK A          47.179   8.752  -8.804  0.00  0.00     0.223 A 
ATOM      8  C7  UNK A          45.111   8.266 -10.110  0.00  0.00     0.085 A 
ATOM      9  C8  UNK A          43.953  10.633  -9.175  0.00  0.00     0.075 A 
ATOM     10  C9  UNK A          43.244   9.802 -10.042  0.00  0.00     0.071 A 
ATOM     11  C11 UNK A          43.822   8.621 -10.508  0.00  0.00     0.074 A 
ENDROOT
BRANCH   5  12
ATOM     12  C4  UNK A          47.755  11.821  -6.603  0.00  0.00     0.004 A 
ATOM     13  C10 UNK A          48.678  12.752  -7.081  0.00  0.00     0.053 A 
ATOM     14  C13 UNK A          49.224  13.700  -6.216  0.00  0.00     0.099 A 
ATOM     15  C15 UNK A          48.848  13.717  -4.873  0.00  0.00     0.098 A 
ATOM     16  C14 UNK A          47.926  12.787  -4.395  0.00  0.00     0.040 A 
ATOM     17  C12 UNK A          47.379  11.839  -5.260  0.00  0.00     0.017 A 
BRANCH  14  18
ATOM     18  O6  UNK A          50.125  14.603  -6.693  0.00  0.00    -0.358 OA
ATOM     19  H9  UNK A          50.157  14.554  -7.663  0.00  0.00     0.217 HD
ENDBRANCH  14  18
BRANCH  15  20
ATOM     20  O7  UNK A          49.374  14.640  -4.019  0.00  0.00    -0.358 OA
ATOM     21  H10 UNK A          48.659  15.086  -3.538  0.00  0.00     0.217 HD
ENDBRANCH  15  20
ENDBRANCH   5  12
BRANCH   6  22
ATOM     22  O2  UNK A          49.109   9.407  -7.438  0.00  0.00    -0.355 OA
ATOM     23  H6  UNK A          49.684  10.185  -7.523  0.00  0.00     0.218 HD
ENDBRANCH   6  22
BRANCH   8  24
ATOM     24  O3  UNK A          45.628   7.102 -10.594  0.00  0.00    -0.360 OA
ATOM     25  H7  UNK A          46.045   7.248 -11.457  0.00  0.00     0.217 HD
ENDBRANCH   8  24
BRANCH  10  26
ATOM     26  O5  UNK A          41.986  10.144 -10.432  0.00  0.00    -0.361 OA
ATOM     27  H8  UNK A          41.993  11.061 -10.756  0.00  0.00     0.217 HD
ENDBRANCH  10  26
TORSDOF 6
ENDMDL
MODEL 9
REMARK VINA RESULT:      -5.8     10.181     13.051
REMARK  6 active torsions:
REMARK  status: ('A' for Active; 'I' for Inactive)
REMARK    1  A    between atoms: O2_2  and  C5_12 
REMARK    2  A    between atoms: O3_3  and  C7_14 
REMARK    3  A    between atoms: O5_5  and  C9_16 
REMARK    4  A    between atoms: O6_6  and  C13_20 
REMARK    5  A    between atoms: O7_7  and  C15_22 
REMARK    6  A    between atoms: C3_10  and  C4_11 
ROOT
ATOM      1  O1  UNK A          48.659   9.486  -7.034  0.00  0.00    -0.306 OA
ATOM      2  O4  UNK A          45.926   9.531 -10.058  0.00  0.00    -0.284 OA
ATOM      3  C1  UNK A          47.603   8.345  -8.898  0.00  0.00     0.084 A 
ATOM      4  C2  UNK A          48.519   8.393  -7.849  0.00  0.00     0.096 A 
ATOM      5  C3  UNK A          47.844  10.586  -7.256  0.00  0.00     0.123 A 
ATOM      6  C5  UNK A          46.928  10.670  -8.238  0.00  0.00     0.152 A 
ATOM      7  C6  UNK A          46.745   9.513  -9.148  0.00  0.00     0.223 A 
ATOM      8  C7  UNK A          47.506   7.203  -9.697  0.00  0.00     0.085 A 
ATOM      9  C8  UNK A          49.346   7.298  -7.594  0.00  0.00     0.075 A 
ATOM     10  C9  UNK A          49.251   6.156  -8.389  0.00  0.00     0.071 A 
ATOM     11  C11 UNK A          48.333   6.110  -9.439  0.00  0.00     0.074 A 
ENDROOT
BRANCH   5  12
ATOM     12  C4  UNK A          48.097  11.688  -6.312  0.00  0.00     0.004 A 
ATOM     13  C10 UNK A          48.943  12.738  -6.673  0.00  0.00     0.053 A 
ATOM     14  C13 UNK A          49.180  13.781  -5.779  0.00  0.00     0.099 A 
ATOM     15  C15 UNK A          48.572  13.776  -4.523  0.00  0.00     0.098 A 
ATOM     16  C14 UNK A          47.726  12.727  -4.162  0.00  0.00     0.040 A 
ATOM     17  C12 UNK A          47.488  11.684  -5.056  0.00  0.00     0.017 A 
BRANCH  14  18
ATOM     18  O6  UNK A          50.009  14.799  -6.142  0.00  0.00    -0.358 OA
ATOM     19  H9  UNK A          50.905  14.626  -5.812  0.00  0.00     0.217 HD
ENDBRANCH  14  18
BRANCH  15  20
ATOM     20  O7  UNK A          48.795  14.791  -3.642  0.00  0.00    -0.358 OA
ATOM     21  H10 UNK A          49.066  14.427  -2.785  0.00  0.00     0.217 HD
ENDBRANCH  15  20
ENDBRANCH   5  12
BRANCH   6  22
ATOM     22  O2  UNK A          46.156  11.792  -8.453  0.00  0.00    -0.355 OA
ATOM     23  H6  UNK A          46.604  12.386  -9.076  0.00  0.00     0.218 HD
ENDBRANCH   6  22
BRANCH   8  24
ATOM     24  O3  UNK A          46.628   7.105 -10.735  0.00  0.00    -0.360 OA
ATOM     25  H7  UNK A          47.047   6.678 -11.497  0.00  0.00     0.217 HD
ENDBRANCH   8  24
BRANCH  10  26
ATOM     26  O5  UNK A          50.056   5.088  -8.142  0.00  0.00    -0.361 OA
ATOM     27  H8  UNK A          50.759   5.059  -8.814  0.00  0.00     0.217 HD
ENDBRANCH  10  26
TORSDOF 6
ENDMDL
MODEL 10
REMARK VINA RESULT:      -5.5      9.976     11.374
REMARK  6 active torsions:
REMARK  status: ('A' for Active; 'I' for Inactive)
REMARK    1  A    between atoms: O2_2  and  C5_12 
REMARK    2  A    between atoms: O3_3  and  C7_14 
REMARK    3  A    between atoms: O5_5  and  C9_16 
REMARK    4  A    between atoms: O6_6  and  C13_20 
REMARK    5  A    between atoms: O7_7  and  C15_22 
REMARK    6  A    between atoms: C3_10  and  C4_11 
ROOT
ATOM      1  O1  UNK A          46.775  11.522  -7.355  0.00  0.00    -0.306 OA
ATOM      2  O4  UNK A          48.357   8.716  -9.851  0.00  0.00    -0.284 OA
ATOM      3  C1  UNK A          46.696  10.347  -9.477  0.00  0.00     0.084 A 
ATOM      4  C2  UNK A          46.202  11.291  -8.578  0.00  0.00     0.096 A 
ATOM      5  C3  UNK A          47.902  10.794  -7.003  0.00  0.00     0.123 A 
ATOM      6  C5  UNK A          48.471   9.850  -7.775  0.00  0.00     0.152 A 
ATOM      7  C6  UNK A          47.883   9.562  -9.105  0.00  0.00     0.223 A 
ATOM      8  C7  UNK A          46.069  10.154 -10.710  0.00  0.00     0.085 A 
ATOM      9  C8  UNK A          45.076  12.046  -8.907  0.00  0.00     0.075 A 
ATOM     10  C9  UNK A          44.448  11.856 -10.138  0.00  0.00     0.071 A 
ATOM     11  C11 UNK A          44.944  10.911 -11.037  0.00  0.00     0.074 A 
ENDROOT
BRANCH   5  12
ATOM     12  C4  UNK A          48.416  11.140  -5.666  0.00  0.00     0.004 A 
ATOM     13  C10 UNK A          48.326  12.452  -5.201  0.00  0.00     0.053 A 
ATOM     14  C13 UNK A          48.811  12.778  -3.935  0.00  0.00     0.099 A 
ATOM     15  C15 UNK A          49.390  11.793  -3.135  0.00  0.00     0.098 A 
ATOM     16  C14 UNK A          49.480  10.481  -3.599  0.00  0.00     0.040 A 
ATOM     17  C12 UNK A          48.993  10.154  -4.865  0.00  0.00     0.017 A 
BRANCH  14  18
ATOM     18  O6  UNK A          48.719  14.063  -3.492  0.00  0.00    -0.358 OA
ATOM     19  H9  UNK A          49.225  14.163  -2.669  0.00  0.00     0.217 HD
ENDBRANCH  14  18
BRANCH  15  20
ATOM     20  O7  UNK A          49.866  12.099  -1.896  0.00  0.00    -0.358 OA
ATOM     21  H10 UNK A          49.166  12.517  -1.369  0.00  0.00     0.217 HD
ENDBRANCH  15  20
ENDBRANCH   5  12
BRANCH   6  22
ATOM     22  O2  UNK A          49.572   9.121  -7.382  0.00  0.00    -0.355 OA
ATOM     23  H6  UNK A          49.932   8.631  -8.140  0.00  0.00     0.218 HD
ENDBRANCH   6  22
BRANCH   8  24
ATOM     24  O3  UNK A          46.511   9.245 -11.625  0.00  0.00    -0.360 OA
ATOM     25  H7  UNK A          47.146   8.636 -11.219  0.00  0.00     0.217 HD
ENDBRANCH   8  24
BRANCH  10  26
ATOM     26  O5  UNK A          43.350  12.592 -10.461  0.00  0.00    -0.361 OA
ATOM     27  H8  UNK A          43.559  13.152 -11.228  0.00  0.00     0.217 HD
ENDBRANCH  10  26
TORSDOF 6
ENDMDL
MODEL 11
REMARK VINA RESULT:      -5.5      9.882     12.615
REMARK  6 active torsions:
REMARK  status: ('A' for Active; 'I' for Inactive)
REMARK    1  A    between atoms: O2_2  and  C5_12 
REMARK    2  A    between atoms: O3_3  and  C7_14 
REMARK    3  A    between atoms: O5_5  and  C9_16 
REMARK    4  A    between atoms: O6_6  and  C13_20 
REMARK    5  A    between atoms: O7_7  and  C15_22 
REMARK    6  A    between atoms: C3_10  and  C4_11 
ROOT
ATOM      1  O1  UNK A          47.803   9.696  -8.086  0.00  0.00    -0.306 OA
ATOM      2  O4  UNK A          44.136  10.218  -9.785  0.00  0.00    -0.284 OA
ATOM      3  C1  UNK A          46.026   8.837  -9.498  0.00  0.00     0.084 A 
ATOM      4  C2  UNK A          47.274   8.720  -8.889  0.00  0.00     0.096 A 
ATOM      5  C3  UNK A          47.058  10.843  -7.859  0.00  0.00     0.123 A 
ATOM      6  C5  UNK A          45.846  11.083  -8.393  0.00  0.00     0.152 A 
ATOM      7  C6  UNK A          45.236  10.057  -9.273  0.00  0.00     0.223 A 
ATOM      8  C7  UNK A          45.537   7.809 -10.308  0.00  0.00     0.085 A 
ATOM      9  C8  UNK A          48.043   7.573  -9.089  0.00  0.00     0.075 A 
ATOM     10  C9  UNK A          47.559   6.544  -9.898  0.00  0.00     0.071 A 
ATOM     11  C11 UNK A          46.308   6.663 -10.506  0.00  0.00     0.074 A 
ENDROOT
BRANCH   5  12
ATOM     12  C4  UNK A          47.741  11.808  -6.980  0.00  0.00     0.004 A 
ATOM     13  C10 UNK A          47.527  11.772  -5.602  0.00  0.00     0.053 A 
ATOM     14  C13 UNK A          48.174  12.684  -4.771  0.00  0.00     0.099 A 
ATOM     15  C15 UNK A          49.036  13.636  -5.317  0.00  0.00     0.098 A 
ATOM     16  C14 UNK A          49.251  13.673  -6.695  0.00  0.00     0.040 A 
ATOM     17  C12 UNK A          48.604  12.759  -7.527  0.00  0.00     0.017 A 
BRANCH  14  18
ATOM     18  O6  UNK A          47.956  12.640  -3.427  0.00  0.00    -0.358 OA
ATOM     19  H9  UNK A          47.024  12.839  -3.239  0.00  0.00     0.217 HD
ENDBRANCH  14  18
BRANCH  15  20
ATOM     20  O7  UNK A          49.675  14.533  -4.515  0.00  0.00    -0.358 OA
ATOM     21  H10 UNK A          50.535  14.763  -4.901  0.00  0.00     0.217 HD
ENDBRANCH  15  20
ENDBRANCH   5  12
BRANCH   6  22
ATOM     22  O2  UNK A          45.145  12.249  -8.174  0.00  0.00    -0.355 OA
ATOM     23  H6  UNK A          44.926  12.331  -7.232  0.00  0.00     0.218 HD
ENDBRANCH   6  22
BRANCH   8  24
ATOM     24  O3  UNK A          44.325   7.873 -10.926  0.00  0.00    -0.360 OA
ATOM     25  H7  UNK A          43.922   6.993 -10.979  0.00  0.00     0.217 HD
ENDBRANCH   8  24
BRANCH  10  26
ATOM     26  O5  UNK A          48.307   5.425 -10.094  0.00  0.00    -0.361 OA
ATOM     27  H8  UNK A          48.798   5.515 -10.929  0.00  0.00     0.217 HD
ENDBRANCH  10  26
TORSDOF 6
ENDMDL
MODEL 12
REMARK VINA RESULT:      -5.1      9.916     11.014
REMARK  6 active torsions:
REMARK  status: ('A' for Active; 'I' for Inactive)
REMARK    1  A    between atoms: O2_2  and  C5_12 
REMARK    2  A    between atoms: O3_3  and  C7_14 
REMARK    3  A    between atoms: O5_5  and  C9_16 
REMARK    4  A    between atoms: O6_6  and  C13_20 
REMARK    5  A    between atoms: O7_7  and  C15_22 
REMARK    6  A    between atoms: C3_10  and  C4_11 
ROOT
ATOM      1  O1  UNK A          46.652  11.338  -6.806  0.00  0.00    -0.306 OA
ATOM      2  O4  UNK A          48.760  12.399 -10.128  0.00  0.00    -0.284 OA
ATOM      3  C1  UNK A          46.731  11.616  -9.215  0.00  0.00     0.084 A 
ATOM      4  C2  UNK A          46.065  11.267  -8.042  0.00  0.00     0.096 A 
ATOM      5  C3  UNK A          47.960  11.790  -6.718  0.00  0.00     0.123 A 
ATOM      6  C5  UNK A          48.714  12.150  -7.773  0.00  0.00     0.152 A 
ATOM      7  C6  UNK A          48.123  12.084  -9.131  0.00  0.00     0.223 A 
ATOM      8  C7  UNK A          46.082  11.522 -10.449  0.00  0.00     0.085 A 
ATOM      9  C8  UNK A          44.745  10.818  -8.096  0.00  0.00     0.075 A 
ATOM     10  C9  UNK A          44.094  10.723  -9.326  0.00  0.00     0.071 A 
ATOM     11  C11 UNK A          44.762  11.074 -10.500  0.00  0.00     0.074 A 
ENDROOT
BRANCH   5  12
ATOM     12  C4  UNK A          48.467  11.818  -5.336  0.00  0.00     0.004 A 
ATOM     13  C10 UNK A          49.059  10.681  -4.785  0.00  0.00     0.053 A 
ATOM     14  C13 UNK A          49.541  10.709  -3.477  0.00  0.00     0.099 A 
ATOM     15  C15 UNK A          49.429  11.874  -2.717  0.00  0.00     0.098 A 
ATOM     16  C14 UNK A          48.837  13.011  -3.267  0.00  0.00     0.040 A 
ATOM     17  C12 UNK A          48.356  12.984  -4.576  0.00  0.00     0.017 A 
BRANCH  14  18
ATOM     18  O6  UNK A          50.116   9.593  -2.950  0.00  0.00    -0.358 OA
ATOM     19  H9  UNK A          49.454   8.886  -2.877  0.00  0.00     0.217 HD
ENDBRANCH  14  18
BRANCH  15  20
ATOM     20  O7  UNK A          49.897  11.914  -1.438  0.00  0.00    -0.358 OA
ATOM     21  H10 UNK A          49.168  12.107  -0.829  0.00  0.00     0.217 HD
ENDBRANCH  15  20
ENDBRANCH   5  12
BRANCH   6  22
ATOM     22  O2  UNK A          50.023  12.564  -7.656  0.00  0.00    -0.355 OA
ATOM     23  H6  UNK A          50.054  13.454  -7.270  0.00  0.00     0.218 HD
ENDBRANCH   6  22
BRANCH   8  24
ATOM     24  O3  UNK A          46.687  11.851 -11.625  0.00  0.00    -0.360 OA
ATOM     25  H7  UNK A          46.383  11.270 -12.338  0.00  0.00     0.217 HD
ENDBRANCH   8  24
BRANCH  10  26
ATOM     26  O5  UNK A          42.807  10.286  -9.381  0.00  0.00    -0.361 OA
ATOM     27  H8  UNK A          42.212  11.056  -9.404  0.00  0.00     0.217 HD
ENDBRANCH  10  26
TORSDOF 6
ENDMDL
MODEL 13
REMARK VINA RESULT:      -5.1     10.779     12.320
REMARK  6 active torsions:
REMARK  status: ('A' for Active; 'I' for Inactive)
REMARK    1  A    between atoms: O2_2  and  C5_12 
REMARK    2  A    between atoms: O3_3  and  C7_14 
REMARK    3  A    between atoms: O5_5  and  C9_16 
REMARK    4  A    between atoms: O6_6  and  C13_20 
REMARK    5  A    between atoms: O7_7  and  C15_22 
REMARK    6  A    between atoms: C3_10  and  C4_11 
ROOT
ATOM      1  O1  UNK A          45.447  10.849  -8.652  0.00  0.00    -0.306 OA
ATOM      2  O4  UNK A          47.886   7.597  -8.939  0.00  0.00    -0.284 OA
ATOM      3  C1  UNK A          47.557   9.780  -8.111  0.00  0.00     0.084 A 
ATOM      4  C2  UNK A          46.678  10.860  -8.051  0.00  0.00     0.096 A 
ATOM      5  C3  UNK A          45.055   9.710  -9.339  0.00  0.00     0.123 A 
ATOM      6  C5  UNK A          45.812   8.605  -9.478  0.00  0.00     0.152 A 
ATOM      7  C6  UNK A          47.154   8.574  -8.848  0.00  0.00     0.223 A 
ATOM      8  C7  UNK A          48.801   9.849  -7.479  0.00  0.00     0.085 A 
ATOM      9  C8  UNK A          47.039  12.017  -7.359  0.00  0.00     0.075 A 
ATOM     10  C9  UNK A          48.280  12.089  -6.727  0.00  0.00     0.071 A 
ATOM     11  C11 UNK A          49.159  11.006  -6.787  0.00  0.00     0.074 A 
ENDROOT
BRANCH   5  12
ATOM     12  C4  UNK A          43.713   9.830  -9.935  0.00  0.00     0.004 A 
ATOM     13  C10 UNK A          42.653   9.078  -9.429  0.00  0.00     0.053 A 
ATOM     14  C13 UNK A          41.383   9.193  -9.993  0.00  0.00     0.099 A 
ATOM     15  C15 UNK A          41.173  10.060 -11.066  0.00  0.00     0.098 A 
ATOM     16  C14 UNK A          42.233  10.812 -11.573  0.00  0.00     0.040 A 
ATOM     17  C12 UNK A          43.503  10.698 -11.008  0.00  0.00     0.017 A 
BRANCH  14  18
ATOM     18  O6  UNK A          40.356   8.453  -9.491  0.00  0.00    -0.358 OA
ATOM     19  H9  UNK A          40.671   7.920  -8.743  0.00  0.00     0.217 HD
ENDBRANCH  14  18
BRANCH  15  20
ATOM     20  O7  UNK A          39.936  10.183 -11.625  0.00  0.00    -0.358 OA
ATOM     21  H10 UNK A          40.001  10.087 -12.588  0.00  0.00     0.217 HD
ENDBRANCH  15  20
ENDBRANCH   5  12
BRANCH   6  22
ATOM     22  O2  UNK A          45.406   7.501 -10.195  0.00  0.00    -0.355 OA
ATOM     23  H6  UNK A          44.437   7.487 -10.260  0.00  0.00     0.218 HD
ENDBRANCH   6  22
BRANCH   8  24
ATOM     24  O3  UNK A          49.697   8.823  -7.507  0.00  0.00    -0.360 OA
ATOM     25  H7  UNK A          49.736   8.381  -6.645  0.00  0.00     0.217 HD
ENDBRANCH   8  24
BRANCH  10  26
ATOM     26  O5  UNK A          48.634  13.215  -6.052  0.00  0.00    -0.361 OA
ATOM     27  H8  UNK A          48.794  13.930  -6.691  0.00  0.00     0.217 HD
ENDBRANCH  10  26
TORSDOF 6
ENDMDL
MODEL 14
REMARK VINA RESULT:      -5.1      9.777     11.726
REMARK  6 active torsions:
REMARK  status: ('A' for Active; 'I' for Inactive)
REMARK    1  A    between atoms: O2_2  and  C5_12 
REMARK    2  A    between atoms: O3_3  and  C7_14 
REMARK    3  A    between atoms: O5_5  and  C9_16 
REMARK    4  A    between atoms: O6_6  and  C13_20 
REMARK    5  A    between atoms: O7_7  and  C15_22 
REMARK    6  A    between atoms: C3_10  and  C4_11 
ROOT
ATOM      1  O1  UNK A          46.197  10.799  -7.654  0.00  0.00    -0.306 OA
ATOM      2  O4  UNK A          49.017  12.489 -10.063  0.00  0.00    -0.284 OA
ATOM      3  C1  UNK A          48.165  12.201  -7.883  0.00  0.00     0.084 A 
ATOM      4  C2  UNK A          47.173  11.596  -7.114  0.00  0.00     0.096 A 
ATOM      5  C3  UNK A          46.207  10.576  -9.022  0.00  0.00     0.123 A 
ATOM      6  C5  UNK A          47.102  11.106  -9.875  0.00  0.00     0.152 A 
ATOM      7  C6  UNK A          48.173  11.979  -9.337  0.00  0.00     0.223 A 
ATOM      8  C7  UNK A          49.134  13.005  -7.277  0.00  0.00     0.085 A 
ATOM      9  C8  UNK A          47.142  11.794  -5.733  0.00  0.00     0.075 A 
ATOM     10  C9  UNK A          48.108  12.596  -5.125  0.00  0.00     0.071 A 
ATOM     11  C11 UNK A          49.102  13.200  -5.897  0.00  0.00     0.074 A 
ENDROOT
BRANCH   5  12
ATOM     12  C4  UNK A          45.107   9.704  -9.471  0.00  0.00     0.004 A 
ATOM     13  C10 UNK A          43.784  10.125  -9.341  0.00  0.00     0.053 A 
ATOM     14  C13 UNK A          42.743   9.300  -9.767  0.00  0.00     0.099 A 
ATOM     15  C15 UNK A          43.026   8.051 -10.321  0.00  0.00     0.098 A 
ATOM     16  C14 UNK A          44.349   7.629 -10.450  0.00  0.00     0.040 A 
ATOM     17  C12 UNK A          45.390   8.455 -10.025  0.00  0.00     0.017 A 
BRANCH  14  18
ATOM     18  O6  UNK A          41.455   9.722  -9.634  0.00  0.00    -0.358 OA
ATOM     19  H9  UNK A          41.385  10.652  -9.905  0.00  0.00     0.217 HD
ENDBRANCH  14  18
BRANCH  15  20
ATOM     20  O7  UNK A          42.018   7.237 -10.741  0.00  0.00    -0.358 OA
ATOM     21  H10 UNK A          42.372   6.356 -10.945  0.00  0.00     0.217 HD
ENDBRANCH  15  20
ENDBRANCH   5  12
BRANCH   6  22
ATOM     22  O2  UNK A          47.065  10.891 -11.236  0.00  0.00    -0.355 OA
ATOM     23  H6  UNK A          46.940  11.735 -11.701  0.00  0.00     0.218 HD
ENDBRANCH   6  22
BRANCH   8  24
ATOM     24  O3  UNK A          50.125  13.619  -7.983  0.00  0.00    -0.360 OA
ATOM     25  H7  UNK A          50.203  14.549  -7.721  0.00  0.00     0.217 HD
ENDBRANCH   8  24
BRANCH  10  26
ATOM     26  O5  UNK A          48.081  12.789  -3.779  0.00  0.00    -0.361 OA
ATOM     27  H8  UNK A          48.129  13.743  -3.595  0.00  0.00     0.217 HD
ENDBRANCH  10  26
TORSDOF 6
ENDMDL
MODEL 15
REMARK VINA RESULT:      -4.9      9.638     11.787
REMARK  6 active torsions:
REMARK  status: ('A' for Active; 'I' for Inactive)
REMARK    1  A    between atoms: O2_2  and  C5_12 
REMARK    2  A    between atoms: O3_3  and  C7_14 
REMARK    3  A    between atoms: O5_5  and  C9_16 
REMARK    4  A    between atoms: O6_6  and  C13_20 
REMARK    5  A    between atoms: O7_7  and  C15_22 
REMARK    6  A    between atoms: C3_10  and  C4_11 
ROOT
ATOM      1  O1  UNK A          45.985  10.938  -7.691  0.00  0.00    -0.306 OA
ATOM      2  O4  UNK A          48.985  12.451  -9.997  0.00  0.00    -0.284 OA
ATOM      3  C1  UNK A          48.059  12.188  -7.844  0.00  0.00     0.084 A 
ATOM      4  C2  UNK A          47.005  11.647  -7.111  0.00  0.00     0.096 A 
ATOM      5  C3  UNK A          46.012  10.741  -9.063  0.00  0.00     0.123 A 
ATOM      6  C5  UNK A          46.966  11.217  -9.883  0.00  0.00     0.152 A 
ATOM      7  C6  UNK A          48.087  11.994  -9.301  0.00  0.00     0.223 A 
ATOM      8  C7  UNK A          49.072  12.904  -7.199  0.00  0.00     0.085 A 
ATOM      9  C8  UNK A          46.955  11.819  -5.728  0.00  0.00     0.075 A 
ATOM     10  C9  UNK A          47.964  12.533  -5.080  0.00  0.00     0.071 A 
ATOM     11  C11 UNK A          49.020  13.074  -5.815  0.00  0.00     0.074 A 
ENDROOT
BRANCH   5  12
ATOM     12  C4  UNK A          44.860   9.965  -9.555  0.00  0.00     0.004 A 
ATOM     13  C10 UNK A          44.925   8.572  -9.603  0.00  0.00     0.053 A 
ATOM     14  C13 UNK A          43.835   7.838 -10.068  0.00  0.00     0.099 A 
ATOM     15  C15 UNK A          42.678   8.497 -10.487  0.00  0.00     0.098 A 
ATOM     16  C14 UNK A          42.612   9.889 -10.439  0.00  0.00     0.040 A 
ATOM     17  C12 UNK A          43.703  10.623  -9.973  0.00  0.00     0.017 A 
BRANCH  14  18
ATOM     18  O6  UNK A          43.911   6.479 -10.112  0.00  0.00    -0.358 OA
ATOM     19  H9  UNK A          43.365   6.097  -9.405  0.00  0.00     0.217 HD
ENDBRANCH  14  18
BRANCH  15  20
ATOM     20  O7  UNK A          41.606   7.790 -10.941  0.00  0.00    -0.358 OA
ATOM     21  H10 UNK A          41.435   8.015 -11.869  0.00  0.00     0.217 HD
ENDBRANCH  15  20
ENDBRANCH   5  12
BRANCH   6  22
ATOM     22  O2  UNK A          46.946  11.031 -11.248  0.00  0.00    -0.355 OA
ATOM     23  H6  UNK A          46.320  11.651 -11.657  0.00  0.00     0.218 HD
ENDBRANCH   6  22
BRANCH   8  24
ATOM     24  O3  UNK A          50.124  13.453  -7.868  0.00  0.00    -0.360 OA
ATOM     25  H7  UNK A          50.932  12.942  -7.708  0.00  0.00     0.217 HD
ENDBRANCH   8  24
BRANCH  10  26
ATOM     26  O5  UNK A          47.918  12.702  -3.731  0.00  0.00    -0.361 OA
ATOM     27  H8  UNK A          47.176  12.185  -3.373  0.00  0.00     0.217 HD
ENDBRANCH  10  26
TORSDOF 6
ENDMDL
MODEL 16
REMARK VINA RESULT:      -4.6     10.225     12.557
REMARK  6 active torsions:
REMARK  status: ('A' for Active; 'I' for Inactive)
REMARK    1  A    between atoms: O2_2  and  C5_12 
REMARK    2  A    between atoms: O3_3  and  C7_14 
REMARK    3  A    between atoms: O5_5  and  C9_16 
REMARK    4  A    between atoms: O6_6  and  C13_20 
REMARK    5  A    between atoms: O7_7  and  C15_22 
REMARK    6  A    between atoms: C3_10  and  C4_11 
ROOT
ATOM      1  O1  UNK A          48.928   9.641  -6.270  0.00  0.00    -0.306 OA
ATOM      2  O4  UNK A          47.906  13.576  -6.559  0.00  0.00    -0.284 OA
ATOM      3  C1  UNK A          48.716  11.816  -5.214  0.00  0.00     0.084 A 
ATOM      4  C2  UNK A          49.048  10.463  -5.180  0.00  0.00     0.096 A 
ATOM      5  C3  UNK A          48.470  10.183  -7.461  0.00  0.00     0.123 A 
ATOM      6  C5  UNK A          48.110  11.470  -7.624  0.00  0.00     0.152 A 
ATOM      7  C6  UNK A          48.217  12.395  -6.471  0.00  0.00     0.223 A 
ATOM      8  C7  UNK A          48.857  12.606  -4.070  0.00  0.00     0.085 A 
ATOM      9  C8  UNK A          49.521   9.890  -3.999  0.00  0.00     0.075 A 
ATOM     10  C9  UNK A          49.663  10.675  -2.855  0.00  0.00     0.071 A 
ATOM     11  C11 UNK A          49.332  12.031  -2.891  0.00  0.00     0.074 A 
ENDROOT
BRANCH   5  12
ATOM     12  C4  UNK A          48.390   9.195  -8.550  0.00  0.00     0.004 A 
ATOM     13  C10 UNK A          47.182   8.552  -8.823  0.00  0.00     0.053 A 
ATOM     14  C13 UNK A          47.106   7.617  -9.855  0.00  0.00     0.099 A 
ATOM     15  C15 UNK A          48.239   7.323 -10.613  0.00  0.00     0.098 A 
ATOM     16  C14 UNK A          49.447   7.964 -10.341  0.00  0.00     0.040 A 
ATOM     17  C12 UNK A          49.523   8.900  -9.309  0.00  0.00     0.017 A 
BRANCH  14  18
ATOM     18  O6  UNK A          45.922   6.996 -10.111  0.00  0.00    -0.358 OA
ATOM     19  H9  UNK A          45.200   7.645 -10.095  0.00  0.00     0.217 HD
ENDBRANCH  14  18
BRANCH  15  20
ATOM     20  O7  UNK A          48.177   6.412 -11.625  0.00  0.00    -0.358 OA
ATOM     21  H10 UNK A          48.494   5.551 -11.310  0.00  0.00     0.217 HD
ENDBRANCH  15  20
ENDBRANCH   5  12
BRANCH   6  22
ATOM     22  O2  UNK A          47.627  11.971  -8.814  0.00  0.00    -0.355 OA
ATOM     23  H6  UNK A          46.914  11.402  -9.146  0.00  0.00     0.218 HD
ENDBRANCH   6  22
BRANCH   8  24
ATOM     24  O3  UNK A          48.548  13.933  -4.050  0.00  0.00    -0.360 OA
ATOM     25  H7  UNK A          47.898  14.141  -4.739  0.00  0.00     0.217 HD
ENDBRANCH   8  24
BRANCH  10  26
ATOM     26  O5  UNK A          50.125  10.119  -1.702  0.00  0.00    -0.361 OA
ATOM     27  H8  UNK A          50.057   9.151  -1.769  0.00  0.00     0.217 HD
ENDBRANCH  10  26
TORSDOF 6
ENDMDL
