MODEL 1
REMARK VINA RESULT:      -7.0      0.000      0.000
REMARK  6 active torsions:
REMARK  status: ('A' for Active; 'I' for Inactive)
REMARK    1  A    between atoms: O2_2  and  C5_12 
REMARK    2  A    between atoms: O3_3  and  C7_14 
REMARK    3  A    between atoms: O5_5  and  C9_16 
REMARK    4  A    between atoms: O6_6  and  C13_20 
REMARK    5  A    between atoms: O7_7  and  C15_22 
REMARK    6  A    between atoms: C3_10  and  C4_11 
ROOT
ATOM      1  O1  UNK A          39.533  15.964  -0.016  0.00  0.00    -0.306 OA
ATOM      2  O4  UNK A          40.888  17.631  -3.479  0.00  0.00    -0.284 OA
ATOM      3  C1  UNK A          39.726  17.915  -1.447  0.00  0.00     0.084 A 
ATOM      4  C2  UNK A          39.289  17.286  -0.282  0.00  0.00     0.096 A 
ATOM      5  C3  UNK A          40.257  15.225  -0.938  0.00  0.00     0.123 A 
ATOM      6  C5  UNK A          40.727  15.710  -2.103  0.00  0.00     0.152 A 
ATOM      7  C6  UNK A          40.483  17.134  -2.436  0.00  0.00     0.223 A 
ATOM      8  C7  UNK A          39.447  19.266  -1.666  0.00  0.00     0.085 A 
ATOM      9  C8  UNK A          38.567  18.006   0.670  0.00  0.00     0.075 A 
ATOM     10  C9  UNK A          38.286  19.355   0.455  0.00  0.00     0.071 A 
ATOM     11  C11 UNK A          38.725  19.984  -0.711  0.00  0.00     0.074 A 
ENDROOT
BRANCH   5  12
ATOM     12  C4  UNK A          40.448  13.823  -0.530  0.00  0.00     0.004 A 
ATOM     13  C10 UNK A          41.062  12.919  -1.398  0.00  0.00     0.053 A 
ATOM     14  C13 UNK A          41.244  11.593  -1.010  0.00  0.00     0.099 A 
ATOM     15  C15 UNK A          40.809  11.167   0.246  0.00  0.00     0.098 A 
ATOM     16  C14 UNK A          40.194  12.070   1.114  0.00  0.00     0.040 A 
ATOM     17  C12 UNK A          40.014  13.397   0.726  0.00  0.00     0.017 A 
BRANCH  14  18
ATOM     18  O6  UNK A          41.844  10.720  -1.866  0.00  0.00    -0.358 OA
ATOM     19  H9  UNK A          42.585  10.279  -1.419  0.00  0.00     0.217 HD
ENDBRANCH  14  18
BRANCH  15  20
ATOM     20  O7  UNK A          40.982   9.873   0.636  0.00  0.00    -0.358 OA
ATOM     21  H10 UNK A          40.524   9.281   0.020  0.00  0.00     0.217 HD
ENDBRANCH  15  20
ENDBRANCH   5  12
BRANCH   6  22
ATOM     22  O2  UNK A          41.416  14.939  -3.015  0.00  0.00    -0.355 OA
ATOM     23  H6  UNK A          40.932  14.114  -3.182  0.00  0.00     0.218 HD
ENDBRANCH   6  22
BRANCH   8  24
ATOM     24  O3  UNK A          39.851  19.928  -2.786  0.00  0.00    -0.360 OA
ATOM     25  H7  UNK A          39.309  20.719  -2.928  0.00  0.00     0.217 HD
ENDBRANCH   8  24
BRANCH  10  26
ATOM     26  O5  UNK A          37.583  20.059   1.383  0.00  0.00    -0.361 OA
ATOM     27  H8  UNK A          37.943  20.961   1.436  0.00  0.00     0.217 HD
ENDBRANCH  10  26
TORSDOF 6
ENDMDL
MODEL 2
REMARK VINA RESULT:      -7.0      1.146      6.760
REMARK  6 active torsions:
REMARK  status: ('A' for Active; 'I' for Inactive)
REMARK    1  A    between atoms: O2_2  and  C5_12 
REMARK    2  A    between atoms: O3_3  and  C7_14 
REMARK    3  A    between atoms: O5_5  and  C9_16 
REMARK    4  A    between atoms: O6_6  and  C13_20 
REMARK    5  A    between atoms: O7_7  and  C15_22 
REMARK    6  A    between atoms: C3_10  and  C4_11 
ROOT
ATOM      1  O1  UNK A          39.592  14.581   0.051  0.00  0.00    -0.306 OA
ATOM      2  O4  UNK A          42.301  13.158  -2.641  0.00  0.00    -0.284 OA
ATOM      3  C1  UNK A          40.889  12.716  -0.805  0.00  0.00     0.084 A 
ATOM      4  C2  UNK A          39.969  13.264   0.087  0.00  0.00     0.096 A 
ATOM      5  C3  UNK A          40.140  15.400  -0.925  0.00  0.00     0.123 A 
ATOM      6  C5  UNK A          41.043  14.998  -1.838  0.00  0.00     0.152 A 
ATOM      7  C6  UNK A          41.484  13.582  -1.834  0.00  0.00     0.223 A 
ATOM      8  C7  UNK A          41.236  11.366  -0.718  0.00  0.00     0.085 A 
ATOM      9  C8  UNK A          39.392  12.464   1.074  0.00  0.00     0.075 A 
ATOM     10  C9  UNK A          39.736  11.115   1.163  0.00  0.00     0.071 A 
ATOM     11  C11 UNK A          40.657  10.568   0.268  0.00  0.00     0.074 A 
ENDROOT
BRANCH   5  12
ATOM     12  C4  UNK A          39.651  16.788  -0.853  0.00  0.00     0.004 A 
ATOM     13  C10 UNK A          38.842  17.189   0.211  0.00  0.00     0.053 A 
ATOM     14  C13 UNK A          38.381  18.503   0.279  0.00  0.00     0.099 A 
ATOM     15  C15 UNK A          38.726  19.416  -0.718  0.00  0.00     0.098 A 
ATOM     16  C14 UNK A          39.534  19.015  -1.781  0.00  0.00     0.040 A 
ATOM     17  C12 UNK A          39.997  17.701  -1.849  0.00  0.00     0.017 A 
BRANCH  14  18
ATOM     18  O6  UNK A          37.591  18.884   1.322  0.00  0.00    -0.358 OA
ATOM     19  H9  UNK A          38.051  19.553   1.854  0.00  0.00     0.217 HD
ENDBRANCH  14  18
BRANCH  15  20
ATOM     20  O7  UNK A          38.282  20.703  -0.661  0.00  0.00    -0.358 OA
ATOM     21  H10 UNK A          38.377  21.043   0.243  0.00  0.00     0.217 HD
ENDBRANCH  15  20
ENDBRANCH   5  12
BRANCH   6  22
ATOM     22  O2  UNK A          41.594  15.845  -2.775  0.00  0.00    -0.355 OA
ATOM     23  H6  UNK A          42.408  15.456  -3.134  0.00  0.00     0.218 HD
ENDBRANCH   6  22
BRANCH   8  24
ATOM     24  O3  UNK A          42.129  10.782  -1.565  0.00  0.00    -0.360 OA
ATOM     25  H7  UNK A          42.062  11.169  -2.451  0.00  0.00     0.217 HD
ENDBRANCH   8  24
BRANCH  10  26
ATOM     26  O5  UNK A          39.174  10.332   2.124  0.00  0.00    -0.361 OA
ATOM     27  H8  UNK A          38.764   9.558   1.701  0.00  0.00     0.217 HD
ENDBRANCH  10  26
TORSDOF 6
ENDMDL
MODEL 3
REMARK VINA RESULT:      -6.9      1.015      1.557
REMARK  6 active torsions:
REMARK  status: ('A' for Active; 'I' for Inactive)
REMARK    1  A    between atoms: O2_2  and  C5_12 
REMARK    2  A    between atoms: O3_3  and  C7_14 
REMARK    3  A    between atoms: O5_5  and  C9_16 
REMARK    4  A    between atoms: O6_6  and  C13_20 
REMARK    5  A    between atoms: O7_7  and  C15_22 
REMARK    6  A    between atoms: C3_10  and  C4_11 
ROOT
ATOM      1  O1  UNK A          39.389  16.329  -0.214  0.00  0.00    -0.306 OA
ATOM      2  O4  UNK A          40.596  18.760  -3.254  0.00  0.00    -0.284 OA
ATOM      3  C1  UNK A          39.414  18.535  -1.226  0.00  0.00     0.084 A 
ATOM      4  C2  UNK A          39.033  17.653  -0.217  0.00  0.00     0.096 A 
ATOM      5  C3  UNK A          40.174  15.852  -1.252  0.00  0.00     0.123 A 
ATOM      6  C5  UNK A          40.601  16.596  -2.289  0.00  0.00     0.152 A 
ATOM      7  C6  UNK A          40.236  18.033  -2.338  0.00  0.00     0.223 A 
ATOM      8  C7  UNK A          39.020  19.875  -1.177  0.00  0.00     0.085 A 
ATOM      9  C8  UNK A          38.252  18.105   0.847  0.00  0.00     0.075 A 
ATOM     10  C9  UNK A          37.857  19.442   0.900  0.00  0.00     0.071 A 
ATOM     11  C11 UNK A          38.240  20.324  -0.112  0.00  0.00     0.074 A 
ENDROOT
BRANCH   5  12
ATOM     12  C4  UNK A          40.484  14.417  -1.127  0.00  0.00     0.004 A 
ATOM     13  C10 UNK A          39.614  13.572  -0.438  0.00  0.00     0.053 A 
ATOM     14  C13 UNK A          39.907  12.214  -0.321  0.00  0.00     0.099 A 
ATOM     15  C15 UNK A          41.072  11.701  -0.891  0.00  0.00     0.098 A 
ATOM     16  C14 UNK A          41.943  12.545  -1.580  0.00  0.00     0.040 A 
ATOM     17  C12 UNK A          41.649  13.904  -1.698  0.00  0.00     0.017 A 
BRANCH  14  18
ATOM     18  O6  UNK A          39.051  11.399   0.355  0.00  0.00    -0.358 OA
ATOM     19  H9  UNK A          38.239  11.884   0.575  0.00  0.00     0.217 HD
ENDBRANCH  14  18
BRANCH  15  20
ATOM     20  O7  UNK A          41.369  10.375  -0.784  0.00  0.00    -0.358 OA
ATOM     21  H10 UNK A          41.758  10.196   0.086  0.00  0.00     0.217 HD
ENDBRANCH  15  20
ENDBRANCH   5  12
BRANCH   6  22
ATOM     22  O2  UNK A          41.353  16.084  -3.324  0.00  0.00    -0.355 OA
ATOM     23  H6  UNK A          41.620  15.173  -3.118  0.00  0.00     0.218 HD
ENDBRANCH   6  22
BRANCH   8  24
ATOM     24  O3  UNK A          39.366  20.778  -2.137  0.00  0.00    -0.360 OA
ATOM     25  H7  UNK A          39.357  20.363  -3.013  0.00  0.00     0.217 HD
ENDBRANCH   8  24
BRANCH  10  26
ATOM     26  O5  UNK A          37.096  19.885   1.936  0.00  0.00    -0.361 OA
ATOM     27  H8  UNK A          36.917  20.833   1.814  0.00  0.00     0.217 HD
ENDBRANCH  10  26
TORSDOF 6
ENDMDL
MODEL 4
REMARK VINA RESULT:      -6.5     10.049     11.625
REMARK  6 active torsions:
REMARK  status: ('A' for Active; 'I' for Inactive)
REMARK    1  A    between atoms: O2_2  and  C5_12 
REMARK    2  A    between atoms: O3_3  and  C7_14 
REMARK    3  A    between atoms: O5_5  and  C9_16 
REMARK    4  A    between atoms: O6_6  and  C13_20 
REMARK    5  A    between atoms: O7_7  and  C15_22 
REMARK    6  A    between atoms: C3_10  and  C4_11 
ROOT
ATOM      1  O1  UNK A          46.265  11.285  -7.459  0.00  0.00    -0.306 OA
ATOM      2  O4  UNK A          48.273  12.071 -10.917  0.00  0.00    -0.284 OA
ATOM      3  C1  UNK A          46.268  11.383  -9.884  0.00  0.00     0.084 A 
ATOM      4  C2  UNK A          45.638  11.129  -8.668  0.00  0.00     0.096 A 
ATOM      5  C3  UNK A          47.579  11.726  -7.448  0.00  0.00     0.123 A 
ATOM      6  C5  UNK A          48.302  11.997  -8.550  0.00  0.00     0.152 A 
ATOM      7  C6  UNK A          47.667  11.838  -9.880  0.00  0.00     0.223 A 
ATOM      8  C7  UNK A          45.578  11.205 -11.086  0.00  0.00     0.085 A 
ATOM      9  C8  UNK A          44.312  10.694  -8.646  0.00  0.00     0.075 A 
ATOM     10  C9  UNK A          43.620  10.516  -9.844  0.00  0.00     0.071 A 
ATOM     11  C11 UNK A          44.253  10.771 -11.062  0.00  0.00     0.074 A 
ENDROOT
BRANCH   5  12
ATOM     12  C4  UNK A          48.132  11.850  -6.088  0.00  0.00     0.004 A 
ATOM     13  C10 UNK A          48.145  13.090  -5.449  0.00  0.00     0.053 A 
ATOM     14  C13 UNK A          48.666  13.207  -4.162  0.00  0.00     0.099 A 
ATOM     15  C15 UNK A          49.179  12.084  -3.512  0.00  0.00     0.098 A 
ATOM     16  C14 UNK A          49.167  10.843  -4.150  0.00  0.00     0.040 A 
ATOM     17  C12 UNK A          48.644  10.726  -5.438  0.00  0.00     0.017 A 
BRANCH  14  18
ATOM     18  O6  UNK A          48.675  14.423  -3.549  0.00  0.00    -0.358 OA
ATOM     19  H9  UNK A          48.281  14.348  -2.664  0.00  0.00     0.217 HD
ENDBRANCH  14  18
BRANCH  15  20
ATOM     20  O7  UNK A          49.690  12.185  -2.253  0.00  0.00    -0.358 OA
ATOM     21  H10 UNK A          49.526  11.363  -1.766  0.00  0.00     0.217 HD
ENDBRANCH  15  20
ENDBRANCH   5  12
BRANCH   6  22
ATOM     22  O2  UNK A          49.619  12.403  -8.505  0.00  0.00    -0.355 OA
ATOM     23  H6  UNK A          50.200  11.629  -8.422  0.00  0.00     0.218 HD
ENDBRANCH   6  22
BRANCH   8  24
ATOM     24  O3  UNK A          46.148  11.439 -12.302  0.00  0.00    -0.360 OA
ATOM     25  H7  UNK A          46.511  10.619 -12.671  0.00  0.00     0.217 HD
ENDBRANCH   8  24
BRANCH  10  26
ATOM     26  O5  UNK A          42.327  10.092  -9.826  0.00  0.00    -0.361 OA
ATOM     27  H8  UNK A          41.898  10.422  -9.018  0.00  0.00     0.217 HD
ENDBRANCH  10  26
TORSDOF 6
ENDMDL
MODEL 5
REMARK VINA RESULT:      -6.4     10.340     12.398
REMARK  6 active torsions:
REMARK  status: ('A' for Active; 'I' for Inactive)
REMARK    1  A    between atoms: O2_2  and  C5_12 
REMARK    2  A    between atoms: O3_3  and  C7_14 
REMARK    3  A    between atoms: O5_5  and  C9_16 
REMARK    4  A    between atoms: O6_6  and  C13_20 
REMARK    5  A    between atoms: O7_7  and  C15_22 
REMARK    6  A    between atoms: C3_10  and  C4_11 
ROOT
ATOM      1  O1  UNK A          46.256  11.267  -8.006  0.00  0.00    -0.306 OA
ATOM      2  O4  UNK A          47.726   7.569  -8.885  0.00  0.00    -0.284 OA
ATOM      3  C1  UNK A          45.933   9.094  -9.037  0.00  0.00     0.084 A 
ATOM      4  C2  UNK A          45.489  10.372  -8.704  0.00  0.00     0.096 A 
ATOM      5  C3  UNK A          47.534  10.888  -7.626  0.00  0.00     0.123 A 
ATOM      6  C5  UNK A          48.079   9.684  -7.877  0.00  0.00     0.152 A 
ATOM      7  C6  UNK A          47.283   8.681  -8.625  0.00  0.00     0.223 A 
ATOM      8  C7  UNK A          45.105   8.223  -9.749  0.00  0.00     0.085 A 
ATOM      9  C8  UNK A          44.210  10.786  -9.081  0.00  0.00     0.075 A 
ATOM     10  C9  UNK A          43.381   9.919  -9.793  0.00  0.00     0.071 A 
ATOM     11  C11 UNK A          43.829   8.640 -10.126  0.00  0.00     0.074 A 
ENDROOT
BRANCH   5  12
ATOM     12  C4  UNK A          48.250  11.942  -6.885  0.00  0.00     0.004 A 
ATOM     13  C10 UNK A          48.085  12.060  -5.505  0.00  0.00     0.053 A 
ATOM     14  C13 UNK A          48.763  13.055  -4.803  0.00  0.00     0.099 A 
ATOM     15  C15 UNK A          49.606  13.936  -5.482  0.00  0.00     0.098 A 
ATOM     16  C14 UNK A          49.771  13.818  -6.862  0.00  0.00     0.040 A 
ATOM     17  C12 UNK A          49.093  12.822  -7.564  0.00  0.00     0.017 A 
BRANCH  14  18
ATOM     18  O6  UNK A          48.594  13.161  -3.456  0.00  0.00    -0.358 OA
ATOM     19  H9  UNK A          48.900  12.349  -3.021  0.00  0.00     0.217 HD
ENDBRANCH  14  18
BRANCH  15  20
ATOM     20  O7  UNK A          50.276  14.912  -4.808  0.00  0.00    -0.358 OA
ATOM     21  H10 UNK A          49.813  15.758  -4.911  0.00  0.00     0.217 HD
ENDBRANCH  15  20
ENDBRANCH   5  12
BRANCH   6  22
ATOM     22  O2  UNK A          49.342   9.326  -7.457  0.00  0.00    -0.355 OA
ATOM     23  H6  UNK A          49.334   9.151  -6.502  0.00  0.00     0.218 HD
ENDBRANCH   6  22
BRANCH   8  24
ATOM     24  O3  UNK A          45.491   6.963 -10.099  0.00  0.00    -0.360 OA
ATOM     25  H7  UNK A          45.687   6.919 -11.047  0.00  0.00     0.217 HD
ENDBRANCH   8  24
BRANCH  10  26
ATOM     26  O5  UNK A          42.135  10.321 -10.162  0.00  0.00    -0.361 OA
ATOM     27  H8  UNK A          42.174  10.684 -11.064  0.00  0.00     0.217 HD
ENDBRANCH  10  26
TORSDOF 6
ENDMDL
MODEL 6
REMARK VINA RESULT:      -6.1      9.726     12.213
REMARK  6 active torsions:
REMARK  status: ('A' for Active; 'I' for Inactive)
REMARK    1  A    between atoms: O2_2  and  C5_12 
REMARK    2  A    between atoms: O3_3  and  C7_14 
REMARK    3  A    between atoms: O5_5  and  C9_16 
REMARK    4  A    between atoms: O6_6  and  C13_20 
REMARK    5  A    between atoms: O7_7  and  C15_22 
REMARK    6  A    between atoms: C3_10  and  C4_11 
ROOT
ATOM      1  O1  UNK A          45.861  11.146  -7.866  0.00  0.00    -0.306 OA
ATOM      2  O4  UNK A          47.897   7.895  -9.242  0.00  0.00    -0.284 OA
ATOM      3  C1  UNK A          45.915   9.172  -9.278  0.00  0.00     0.084 A 
ATOM      4  C2  UNK A          45.273  10.299  -8.769  0.00  0.00     0.096 A 
ATOM      5  C3  UNK A          47.157  10.876  -7.453  0.00  0.00     0.123 A 
ATOM      6  C5  UNK A          47.883   9.819  -7.861  0.00  0.00     0.152 A 
ATOM      7  C6  UNK A          47.285   8.873  -8.833  0.00  0.00     0.223 A 
ATOM      8  C7  UNK A          45.265   8.343 -10.195  0.00  0.00     0.085 A 
ATOM      9  C8  UNK A          43.972  10.603  -9.173  0.00  0.00     0.075 A 
ATOM     10  C9  UNK A          43.319   9.778 -10.089  0.00  0.00     0.071 A 
ATOM     11  C11 UNK A          43.965   8.650 -10.598  0.00  0.00     0.074 A 
ENDROOT
BRANCH   5  12
ATOM     12  C4  UNK A          47.669  11.862  -6.485  0.00  0.00     0.004 A 
ATOM     13  C10 UNK A          48.570  12.844  -6.899  0.00  0.00     0.053 A 
ATOM     14  C13 UNK A          49.053  13.778  -5.983  0.00  0.00     0.099 A 
ATOM     15  C15 UNK A          48.637  13.729  -4.652  0.00  0.00     0.098 A 
ATOM     16  C14 UNK A          47.737  12.748  -4.238  0.00  0.00     0.040 A 
ATOM     17  C12 UNK A          47.252  11.814  -5.154  0.00  0.00     0.017 A 
BRANCH  14  18
ATOM     18  O6  UNK A          49.933  14.731  -6.398  0.00  0.00    -0.358 OA
ATOM     19  H9  UNK A          49.450  15.466  -6.811  0.00  0.00     0.217 HD
ENDBRANCH  14  18
BRANCH  15  20
ATOM     20  O7  UNK A          49.101  14.637  -3.748  0.00  0.00    -0.358 OA
ATOM     21  H10 UNK A          49.462  14.175  -2.975  0.00  0.00     0.217 HD
ENDBRANCH  15  20
ENDBRANCH   5  12
BRANCH   6  22
ATOM     22  O2  UNK A          49.158   9.561  -7.405  0.00  0.00    -0.355 OA
ATOM     23  H6  UNK A          49.790   9.623  -8.140  0.00  0.00     0.218 HD
ENDBRANCH   6  22
BRANCH   8  24
ATOM     24  O3  UNK A          45.848   7.231 -10.723  0.00  0.00    -0.360 OA
ATOM     25  H7  UNK A          46.007   6.570 -10.032  0.00  0.00     0.217 HD
ENDBRANCH   8  24
BRANCH  10  26
ATOM     26  O5  UNK A          42.052  10.072 -10.485  0.00  0.00    -0.361 OA
ATOM     27  H8  UNK A          42.061  10.301 -11.431  0.00  0.00     0.217 HD
ENDBRANCH  10  26
TORSDOF 6
ENDMDL
MODEL 7
REMARK VINA RESULT:      -6.1     10.046     11.889
REMARK  6 active torsions:
REMARK  status: ('A' for Active; 'I' for Inactive)
REMARK    1  A    between atoms: O2_2  and  C5_12 
REMARK    2  A    between atoms: O3_3  and  C7_14 
REMARK    3  A    between atoms: O5_5  and  C9_16 
REMARK    4  A    between atoms: O6_6  and  C13_20 
REMARK    5  A    between atoms: O7_7  and  C15_22 
REMARK    6  A    between atoms: C3_10  and  C4_11 
ROOT
ATOM      1  O1  UNK A          46.951  11.986  -7.184  0.00  0.00    -0.306 OA
ATOM      2  O4  UNK A          49.655   8.965  -6.768  0.00  0.00    -0.284 OA
ATOM      3  C1  UNK A          48.859  11.052  -6.010  0.00  0.00     0.084 A 
ATOM      4  C2  UNK A          47.908  12.051  -6.205  0.00  0.00     0.096 A 
ATOM      5  C3  UNK A          46.922  10.871  -8.008  0.00  0.00     0.123 A 
ATOM      6  C5  UNK A          47.786   9.843  -7.930  0.00  0.00     0.152 A 
ATOM      7  C6  UNK A          48.841   9.872  -6.889  0.00  0.00     0.223 A 
ATOM      8  C7  UNK A          49.812  11.173  -4.996  0.00  0.00     0.085 A 
ATOM      9  C8  UNK A          47.905  13.181  -5.386  0.00  0.00     0.075 A 
ATOM     10  C9  UNK A          48.855  13.306  -4.372  0.00  0.00     0.071 A 
ATOM     11  C11 UNK A          49.806  12.303  -4.178  0.00  0.00     0.074 A 
ENDROOT
BRANCH   5  12
ATOM     12  C4  UNK A          45.847  10.928  -9.014  0.00  0.00     0.004 A 
ATOM     13  C10 UNK A          44.608  10.346  -8.747  0.00  0.00     0.053 A 
ATOM     14  C13 UNK A          43.591  10.401  -9.699  0.00  0.00     0.099 A 
ATOM     15  C15 UNK A          43.814  11.036 -10.921  0.00  0.00     0.098 A 
ATOM     16  C14 UNK A          45.052  11.617 -11.189  0.00  0.00     0.040 A 
ATOM     17  C12 UNK A          46.070  11.563 -10.236  0.00  0.00     0.017 A 
BRANCH  14  18
ATOM     18  O6  UNK A          42.385   9.829  -9.427  0.00  0.00    -0.358 OA
ATOM     19  H9  UNK A          42.514   9.033  -8.885  0.00  0.00     0.217 HD
ENDBRANCH  14  18
BRANCH  15  20
ATOM     20  O7  UNK A          42.827  11.097 -11.859  0.00  0.00    -0.358 OA
ATOM     21  H10 UNK A          42.428  10.220 -11.972  0.00  0.00     0.217 HD
ENDBRANCH  15  20
ENDBRANCH   5  12
BRANCH   6  22
ATOM     22  O2  UNK A          47.750   8.763  -8.786  0.00  0.00    -0.355 OA
ATOM     23  H6  UNK A          48.059   9.030  -9.667  0.00  0.00     0.218 HD
ENDBRANCH   6  22
BRANCH   8  24
ATOM     24  O3  UNK A          50.762  10.225  -4.763  0.00  0.00    -0.360 OA
ATOM     25  H7  UNK A          51.496  10.318  -5.390  0.00  0.00     0.217 HD
ENDBRANCH   8  24
BRANCH  10  26
ATOM     26  O5  UNK A          48.854  14.406  -3.572  0.00  0.00    -0.361 OA
ATOM     27  H8  UNK A          49.511  15.041  -3.907  0.00  0.00     0.217 HD
ENDBRANCH  10  26
TORSDOF 6
ENDMDL
MODEL 8
REMARK VINA RESULT:      -6.0      9.944     11.652
REMARK  6 active torsions:
REMARK  status: ('A' for Active; 'I' for Inactive)
REMARK    1  A    between atoms: O2_2  and  C5_12 
REMARK    2  A    between atoms: O3_3  and  C7_14 
REMARK    3  A    between atoms: O5_5  and  C9_16 
REMARK    4  A    between atoms: O6_6  and  C13_20 
REMARK    5  A    between atoms: O7_7  and  C15_22 
REMARK    6  A    between atoms: C3_10  and  C4_11 
ROOT
ATOM      1  O1  UNK A          47.364  11.873  -7.029  0.00  0.00    -0.306 OA
ATOM      2  O4  UNK A          50.654  12.947  -9.180  0.00  0.00    -0.284 OA
ATOM      3  C1  UNK A          49.407  13.172  -7.192  0.00  0.00     0.084 A 
ATOM      4  C2  UNK A          48.263  12.766  -6.508  0.00  0.00     0.096 A 
ATOM      5  C3  UNK A          47.611  11.342  -8.285  0.00  0.00     0.123 A 
ATOM      6  C5  UNK A          48.672  11.657  -9.051  0.00  0.00     0.152 A 
ATOM      7  C6  UNK A          49.669  12.623  -8.531  0.00  0.00     0.223 A 
ATOM      8  C7  UNK A          50.288  14.088  -6.610  0.00  0.00     0.085 A 
ATOM      9  C8  UNK A          47.992  13.275  -5.237  0.00  0.00     0.075 A 
ATOM     10  C9  UNK A          48.869  14.189  -4.653  0.00  0.00     0.071 A 
ATOM     11  C11 UNK A          50.015  14.594  -5.340  0.00  0.00     0.074 A 
ENDROOT
BRANCH   5  12
ATOM     12  C4  UNK A          46.569  10.397  -8.725  0.00  0.00     0.004 A 
ATOM     13  C10 UNK A          45.230  10.788  -8.734  0.00  0.00     0.053 A 
ATOM     14  C13 UNK A          44.245   9.894  -9.152  0.00  0.00     0.099 A 
ATOM     15  C15 UNK A          44.598   8.607  -9.560  0.00  0.00     0.098 A 
ATOM     16  C14 UNK A          45.937   8.216  -9.552  0.00  0.00     0.040 A 
ATOM     17  C12 UNK A          46.923   9.111  -9.135  0.00  0.00     0.017 A 
BRANCH  14  18
ATOM     18  O6  UNK A          42.941  10.286  -9.154  0.00  0.00    -0.358 OA
ATOM     19  H9  UNK A          42.377   9.553  -8.859  0.00  0.00     0.217 HD
ENDBRANCH  14  18
BRANCH  15  20
ATOM     20  O7  UNK A          43.645   7.726  -9.972  0.00  0.00    -0.358 OA
ATOM     21  H10 UNK A          42.769   8.139  -9.913  0.00  0.00     0.217 HD
ENDBRANCH  15  20
ENDBRANCH   5  12
BRANCH   6  22
ATOM     22  O2  UNK A          48.871  11.135 -10.311  0.00  0.00    -0.355 OA
ATOM     23  H6  UNK A          48.064  10.690 -10.616  0.00  0.00     0.218 HD
ENDBRANCH   6  22
BRANCH   8  24
ATOM     24  O3  UNK A          51.420  14.517  -7.236  0.00  0.00    -0.360 OA
ATOM     25  H7  UNK A          51.730  15.348  -6.846  0.00  0.00     0.217 HD
ENDBRANCH   8  24
BRANCH  10  26
ATOM     26  O5  UNK A          48.607  14.686  -3.415  0.00  0.00    -0.361 OA
ATOM     27  H8  UNK A          48.930  15.603  -3.367  0.00  0.00     0.217 HD
ENDBRANCH  10  26
TORSDOF 6
ENDMDL
MODEL 9
REMARK VINA RESULT:      -6.0     10.483     12.502
REMARK  6 active torsions:
REMARK  status: ('A' for Active; 'I' for Inactive)
REMARK    1  A    between atoms: O2_2  and  C5_12 
REMARK    2  A    between atoms: O3_3  and  C7_14 
REMARK    3  A    between atoms: O5_5  and  C9_16 
REMARK    4  A    between atoms: O6_6  and  C13_20 
REMARK    5  A    between atoms: O7_7  and  C15_22 
REMARK    6  A    between atoms: C3_10  and  C4_11 
ROOT
ATOM      1  O1  UNK A          49.343  12.291  -7.441  0.00  0.00    -0.306 OA
ATOM      2  O4  UNK A          50.542  11.002  -3.766  0.00  0.00    -0.284 OA
ATOM      3  C1  UNK A          50.890  12.469  -5.579  0.00  0.00     0.084 A 
ATOM      4  C2  UNK A          50.430  12.864  -6.834  0.00  0.00     0.096 A 
ATOM      5  C3  UNK A          48.664  11.286  -6.771  0.00  0.00     0.123 A 
ATOM      6  C5  UNK A          49.009  10.808  -5.561  0.00  0.00     0.152 A 
ATOM      7  C6  UNK A          50.182  11.394  -4.868  0.00  0.00     0.223 A 
ATOM      8  C7  UNK A          52.005  13.089  -5.010  0.00  0.00     0.085 A 
ATOM      9  C8  UNK A          51.087  13.880  -7.530  0.00  0.00     0.075 A 
ATOM     10  C9  UNK A          52.201  14.501  -6.964  0.00  0.00     0.071 A 
ATOM     11  C11 UNK A          52.658  14.105  -5.706  0.00  0.00     0.074 A 
ENDROOT
BRANCH   5  12
ATOM     12  C4  UNK A          47.518  10.759  -7.533  0.00  0.00     0.004 A 
ATOM     13  C10 UNK A          46.304  11.447  -7.535  0.00  0.00     0.053 A 
ATOM     14  C13 UNK A          45.221  10.949  -8.257  0.00  0.00     0.099 A 
ATOM     15  C15 UNK A          45.350   9.760  -8.977  0.00  0.00     0.098 A 
ATOM     16  C14 UNK A          46.563   9.072  -8.975  0.00  0.00     0.040 A 
ATOM     17  C12 UNK A          47.647   9.571  -8.254  0.00  0.00     0.017 A 
BRANCH  14  18
ATOM     18  O6  UNK A          44.041  11.628  -8.250  0.00  0.00    -0.358 OA
ATOM     19  H9  UNK A          44.152  12.475  -7.788  0.00  0.00     0.217 HD
ENDBRANCH  14  18
BRANCH  15  20
ATOM     20  O7  UNK A          44.298   9.264  -9.687  0.00  0.00    -0.358 OA
ATOM     21  H10 UNK A          44.571   9.098 -10.603  0.00  0.00     0.217 HD
ENDBRANCH  15  20
ENDBRANCH   5  12
BRANCH   6  22
ATOM     22  O2  UNK A          48.331   9.784  -4.936  0.00  0.00    -0.355 OA
ATOM     23  H6  UNK A          47.720  10.148  -4.275  0.00  0.00     0.218 HD
ENDBRANCH   6  22
BRANCH   8  24
ATOM     24  O3  UNK A          52.494  12.741  -3.786  0.00  0.00    -0.360 OA
ATOM     25  H7  UNK A          52.842  11.837  -3.804  0.00  0.00     0.217 HD
ENDBRANCH   8  24
BRANCH  10  26
ATOM     26  O5  UNK A          52.842  15.493  -7.640  0.00  0.00    -0.361 OA
ATOM     27  H8  UNK A          53.733  15.605  -7.266  0.00  0.00     0.217 HD
ENDBRANCH  10  26
TORSDOF 6
ENDMDL
MODEL 10
REMARK VINA RESULT:      -6.0     10.655     12.514
REMARK  6 active torsions:
REMARK  status: ('A' for Active; 'I' for Inactive)
REMARK    1  A    between atoms: O2_2  and  C5_12 
REMARK    2  A    between atoms: O3_3  and  C7_14 
REMARK    3  A    between atoms: O5_5  and  C9_16 
REMARK    4  A    between atoms: O6_6  and  C13_20 
REMARK    5  A    between atoms: O7_7  and  C15_22 
REMARK    6  A    between atoms: C3_10  and  C4_11 
ROOT
ATOM      1  O1  UNK A          49.982  10.072  -4.755  0.00  0.00    -0.306 OA
ATOM      2  O4  UNK A          47.746  13.210  -6.083  0.00  0.00    -0.284 OA
ATOM      3  C1  UNK A          48.416  10.968  -6.378  0.00  0.00     0.084 A 
ATOM      4  C2  UNK A          49.203   9.935  -5.874  0.00  0.00     0.096 A 
ATOM      5  C3  UNK A          49.975  11.288  -4.089  0.00  0.00     0.123 A 
ATOM      6  C5  UNK A          49.266  12.365  -4.475  0.00  0.00     0.152 A 
ATOM      7  C6  UNK A          48.413  12.264  -5.684  0.00  0.00     0.223 A 
ATOM      8  C7  UNK A          47.643  10.770  -7.525  0.00  0.00     0.085 A 
ATOM      9  C8  UNK A          49.224   8.696  -6.517  0.00  0.00     0.075 A 
ATOM     10  C9  UNK A          48.453   8.495  -7.662  0.00  0.00     0.071 A 
ATOM     11  C11 UNK A          47.664   9.531  -8.165  0.00  0.00     0.074 A 
ENDROOT
BRANCH   5  12
ATOM     12  C4  UNK A          50.852  11.300  -2.905  0.00  0.00     0.004 A 
ATOM     13  C10 UNK A          50.316  11.087  -1.635  0.00  0.00     0.053 A 
ATOM     14  C13 UNK A          51.146  11.097  -0.516  0.00  0.00     0.099 A 
ATOM     15  C15 UNK A          52.515  11.324  -0.665  0.00  0.00     0.098 A 
ATOM     16  C14 UNK A          53.052  11.537  -1.934  0.00  0.00     0.040 A 
ATOM     17  C12 UNK A          52.221  11.525  -3.055  0.00  0.00     0.017 A 
BRANCH  14  18
ATOM     18  O6  UNK A          50.611  10.889   0.719  0.00  0.00    -0.358 OA
ATOM     19  H9  UNK A          51.070  10.153   1.156  0.00  0.00     0.217 HD
ENDBRANCH  14  18
BRANCH  15  20
ATOM     20  O7  UNK A          53.337  11.335   0.421  0.00  0.00    -0.358 OA
ATOM     21  H10 UNK A          53.548  10.425   0.682  0.00  0.00     0.217 HD
ENDBRANCH  15  20
ENDBRANCH   5  12
BRANCH   6  22
ATOM     22  O2  UNK A          49.306  13.570  -3.808  0.00  0.00    -0.355 OA
ATOM     23  H6  UNK A          48.461  13.727  -3.358  0.00  0.00     0.218 HD
ENDBRANCH   6  22
BRANCH   8  24
ATOM     24  O3  UNK A          46.856  11.747  -8.058  0.00  0.00    -0.360 OA
ATOM     25  H7  UNK A          47.057  11.870  -8.998  0.00  0.00     0.217 HD
ENDBRANCH   8  24
BRANCH  10  26
ATOM     26  O5  UNK A          48.472   7.288  -8.290  0.00  0.00    -0.361 OA
ATOM     27  H8  UNK A          49.357   7.141  -8.666  0.00  0.00     0.217 HD
ENDBRANCH  10  26
TORSDOF 6
ENDMDL
MODEL 11
REMARK VINA RESULT:      -6.0      9.752     13.424
REMARK  6 active torsions:
REMARK  status: ('A' for Active; 'I' for Inactive)
REMARK    1  A    between atoms: O2_2  and  C5_12 
REMARK    2  A    between atoms: O3_3  and  C7_14 
REMARK    3  A    between atoms: O5_5  and  C9_16 
REMARK    4  A    between atoms: O6_6  and  C13_20 
REMARK    5  A    between atoms: O7_7  and  C15_22 
REMARK    6  A    between atoms: C3_10  and  C4_11 
ROOT
ATOM      1  O1  UNK A          48.654   9.484  -7.032  0.00  0.00    -0.306 OA
ATOM      2  O4  UNK A          45.936   9.537 -10.068  0.00  0.00    -0.284 OA
ATOM      3  C1  UNK A          47.603   8.346  -8.900  0.00  0.00     0.084 A 
ATOM      4  C2  UNK A          48.514   8.391  -7.847  0.00  0.00     0.096 A 
ATOM      5  C3  UNK A          47.845  10.586  -7.258  0.00  0.00     0.123 A 
ATOM      6  C5  UNK A          46.933  10.673  -8.244  0.00  0.00     0.152 A 
ATOM      7  C6  UNK A          46.750   9.517  -9.154  0.00  0.00     0.223 A 
ATOM      8  C7  UNK A          47.505   7.204  -9.699  0.00  0.00     0.085 A 
ATOM      9  C8  UNK A          49.336   7.293  -7.588  0.00  0.00     0.075 A 
ATOM     10  C9  UNK A          49.241   6.151  -8.383  0.00  0.00     0.071 A 
ATOM     11  C11 UNK A          48.327   6.108  -9.438  0.00  0.00     0.074 A 
ENDROOT
BRANCH   5  12
ATOM     12  C4  UNK A          48.096  11.688  -6.313  0.00  0.00     0.004 A 
ATOM     13  C10 UNK A          48.941  12.738  -6.673  0.00  0.00     0.053 A 
ATOM     14  C13 UNK A          49.178  13.782  -5.779  0.00  0.00     0.099 A 
ATOM     15  C15 UNK A          48.571  13.774  -4.522  0.00  0.00     0.098 A 
ATOM     16  C14 UNK A          47.726  12.725  -4.162  0.00  0.00     0.040 A 
ATOM     17  C12 UNK A          47.488  11.681  -5.057  0.00  0.00     0.017 A 
BRANCH  14  18
ATOM     18  O6  UNK A          50.005  14.801  -6.140  0.00  0.00    -0.358 OA
ATOM     19  H9  UNK A          49.481  15.586  -6.364  0.00  0.00     0.217 HD
ENDBRANCH  14  18
BRANCH  15  20
ATOM     20  O7  UNK A          48.793  14.789  -3.640  0.00  0.00    -0.358 OA
ATOM     21  H10 UNK A          49.195  15.542  -4.102  0.00  0.00     0.217 HD
ENDBRANCH  15  20
ENDBRANCH   5  12
BRANCH   6  22
ATOM     22  O2  UNK A          46.166  11.797  -8.463  0.00  0.00    -0.355 OA
ATOM     23  H6  UNK A          46.338  12.454  -7.769  0.00  0.00     0.218 HD
ENDBRANCH   6  22
BRANCH   8  24
ATOM     24  O3  UNK A          46.632   7.109 -10.741  0.00  0.00    -0.360 OA
ATOM     25  H7  UNK A          45.721   7.050 -10.416  0.00  0.00     0.217 HD
ENDBRANCH   8  24
BRANCH  10  26
ATOM     26  O5  UNK A          50.041   5.080  -8.132  0.00  0.00    -0.361 OA
ATOM     27  H8  UNK A          50.658   4.965  -8.875  0.00  0.00     0.217 HD
ENDBRANCH  10  26
TORSDOF 6
ENDMDL
MODEL 12
REMARK VINA RESULT:      -5.9     10.027     12.454
REMARK  6 active torsions:
REMARK  status: ('A' for Active; 'I' for Inactive)
REMARK    1  A    between atoms: O2_2  and  C5_12 
REMARK    2  A    between atoms: O3_3  and  C7_14 
REMARK    3  A    between atoms: O5_5  and  C9_16 
REMARK    4  A    between atoms: O6_6  and  C13_20 
REMARK    5  A    between atoms: O7_7  and  C15_22 
REMARK    6  A    between atoms: C3_10  and  C4_11 
ROOT
ATOM      1  O1  UNK A          48.700  12.408  -8.635  0.00  0.00    -0.306 OA
ATOM      2  O4  UNK A          45.076  11.078  -9.943  0.00  0.00    -0.284 OA
ATOM      3  C1  UNK A          47.193  11.965 -10.485  0.00  0.00     0.084 A 
ATOM      4  C2  UNK A          48.411  12.407  -9.975  0.00  0.00     0.096 A 
ATOM      5  C3  UNK A          47.742  11.935  -7.752  0.00  0.00     0.123 A 
ATOM      6  C5  UNK A          46.525  11.488  -8.114  0.00  0.00     0.152 A 
ATOM      7  C6  UNK A          46.167  11.474  -9.553  0.00  0.00     0.223 A 
ATOM      8  C7  UNK A          46.954  11.989 -11.862  0.00  0.00     0.085 A 
ATOM      9  C8  UNK A          49.400  12.880 -10.839  0.00  0.00     0.075 A 
ATOM     10  C9  UNK A          49.165  12.906 -12.214  0.00  0.00     0.071 A 
ATOM     11  C11 UNK A          47.944  12.461 -12.724  0.00  0.00     0.074 A 
ENDROOT
BRANCH   5  12
ATOM     12  C4  UNK A          48.178  11.989  -6.346  0.00  0.00     0.004 A 
ATOM     13  C10 UNK A          48.156  13.201  -5.654  0.00  0.00     0.053 A 
ATOM     14  C13 UNK A          48.568  13.252  -4.323  0.00  0.00     0.099 A 
ATOM     15  C15 UNK A          49.005  12.091  -3.683  0.00  0.00     0.098 A 
ATOM     16  C14 UNK A          49.028  10.880  -4.374  0.00  0.00     0.040 A 
ATOM     17  C12 UNK A          48.615  10.829  -5.706  0.00  0.00     0.017 A 
BRANCH  14  18
ATOM     18  O6  UNK A          48.543  14.440  -3.658  0.00  0.00    -0.358 OA
ATOM     19  H9  UNK A          49.431  14.647  -3.323  0.00  0.00     0.217 HD
ENDBRANCH  14  18
BRANCH  15  20
ATOM     20  O7  UNK A          49.409  12.128  -2.382  0.00  0.00    -0.358 OA
ATOM     21  H10 UNK A          49.682  11.242  -2.099  0.00  0.00     0.217 HD
ENDBRANCH  15  20
ENDBRANCH   5  12
BRANCH   6  22
ATOM     22  O2  UNK A          45.582  11.054  -7.207  0.00  0.00    -0.355 OA
ATOM     23  H6  UNK A          45.159  11.817  -6.780  0.00  0.00     0.218 HD
ENDBRANCH   6  22
BRANCH   8  24
ATOM     24  O3  UNK A          45.781  11.568 -12.412  0.00  0.00    -0.360 OA
ATOM     25  H7  UNK A          45.383  10.870 -11.870  0.00  0.00     0.217 HD
ENDBRANCH   8  24
BRANCH  10  26
ATOM     26  O5  UNK A          50.128  13.365 -13.059  0.00  0.00    -0.361 OA
ATOM     27  H8  UNK A          49.869  14.245 -13.384  0.00  0.00     0.217 HD
ENDBRANCH  10  26
TORSDOF 6
ENDMDL
MODEL 13
REMARK VINA RESULT:      -5.9     10.577     12.413
REMARK  6 active torsions:
REMARK  status: ('A' for Active; 'I' for Inactive)
REMARK    1  A    between atoms: O2_2  and  C5_12 
REMARK    2  A    between atoms: O3_3  and  C7_14 
REMARK    3  A    between atoms: O5_5  and  C9_16 
REMARK    4  A    between atoms: O6_6  and  C13_20 
REMARK    5  A    between atoms: O7_7  and  C15_22 
REMARK    6  A    between atoms: C3_10  and  C4_11 
ROOT
ATOM      1  O1  UNK A          47.443  11.257  -6.641  0.00  0.00    -0.306 OA
ATOM      2  O4  UNK A          50.460   8.687  -7.590  0.00  0.00    -0.284 OA
ATOM      3  C1  UNK A          49.516  10.163  -6.012  0.00  0.00     0.084 A 
ATOM      4  C2  UNK A          48.458  11.030  -5.748  0.00  0.00     0.096 A 
ATOM      5  C3  UNK A          47.465  10.585  -7.853  0.00  0.00     0.123 A 
ATOM      6  C5  UNK A          48.432   9.729  -8.233  0.00  0.00     0.152 A 
ATOM      7  C6  UNK A          49.553   9.456  -7.301  0.00  0.00     0.223 A 
ATOM      8  C7  UNK A          50.524   9.971  -5.063  0.00  0.00     0.085 A 
ATOM      9  C8  UNK A          48.402  11.713  -4.532  0.00  0.00     0.075 A 
ATOM     10  C9  UNK A          49.406  11.525  -3.583  0.00  0.00     0.071 A 
ATOM     11  C11 UNK A          50.465  10.655  -3.849  0.00  0.00     0.074 A 
ENDROOT
BRANCH   5  12
ATOM     12  C4  UNK A          46.320  10.919  -8.717  0.00  0.00     0.004 A 
ATOM     13  C10 UNK A          45.094  10.280  -8.530  0.00  0.00     0.053 A 
ATOM     14  C13 UNK A          44.009  10.598  -9.347  0.00  0.00     0.099 A 
ATOM     15  C15 UNK A          44.151  11.553 -10.354  0.00  0.00     0.098 A 
ATOM     16  C14 UNK A          45.376  12.192 -10.541  0.00  0.00     0.040 A 
ATOM     17  C12 UNK A          46.461  11.876  -9.723  0.00  0.00     0.017 A 
BRANCH  14  18
ATOM     18  O6  UNK A          42.818   9.966  -9.156  0.00  0.00    -0.358 OA
ATOM     19  H9  UNK A          42.305  10.432  -8.475  0.00  0.00     0.217 HD
ENDBRANCH  14  18
BRANCH  15  20
ATOM     20  O7  UNK A          43.098  11.873 -11.157  0.00  0.00    -0.358 OA
ATOM     21  H10 UNK A          42.424  11.177 -11.106  0.00  0.00     0.217 HD
ENDBRANCH  15  20
ENDBRANCH   5  12
BRANCH   6  22
ATOM     22  O2  UNK A          48.442   9.102  -9.460  0.00  0.00    -0.355 OA
ATOM     23  H6  UNK A          47.586   9.226  -9.901  0.00  0.00     0.218 HD
ENDBRANCH   6  22
BRANCH   8  24
ATOM     24  O3  UNK A          51.580   9.135  -5.271  0.00  0.00    -0.360 OA
ATOM     25  H7  UNK A          52.417   9.615  -5.181  0.00  0.00     0.217 HD
ENDBRANCH   8  24
BRANCH  10  26
ATOM     26  O5  UNK A          49.353  12.189  -2.397  0.00  0.00    -0.361 OA
ATOM     27  H8  UNK A          49.910  11.725  -1.749  0.00  0.00     0.217 HD
ENDBRANCH  10  26
TORSDOF 6
ENDMDL
MODEL 14
REMARK VINA RESULT:      -5.9      9.892     11.564
REMARK  6 active torsions:
REMARK  status: ('A' for Active; 'I' for Inactive)
REMARK    1  A    between atoms: O2_2  and  C5_12 
REMARK    2  A    between atoms: O3_3  and  C7_14 
REMARK    3  A    between atoms: O5_5  and  C9_16 
REMARK    4  A    between atoms: O6_6  and  C13_20 
REMARK    5  A    between atoms: O7_7  and  C15_22 
REMARK    6  A    between atoms: C3_10  and  C4_11 
ROOT
ATOM      1  O1  UNK A          47.177  12.048  -7.015  0.00  0.00    -0.306 OA
ATOM      2  O4  UNK A          50.504  12.942  -9.192  0.00  0.00    -0.284 OA
ATOM      3  C1  UNK A          49.301  13.211  -7.182  0.00  0.00     0.084 A 
ATOM      4  C2  UNK A          48.141  12.868  -6.489  0.00  0.00     0.096 A 
ATOM      5  C3  UNK A          47.372  11.526  -8.284  0.00  0.00     0.123 A 
ATOM      6  C5  UNK A          48.441  11.785  -9.059  0.00  0.00     0.152 A 
ATOM      7  C6  UNK A          49.507  12.672  -8.534  0.00  0.00     0.223 A 
ATOM      8  C7  UNK A          50.248  14.054  -6.595  0.00  0.00     0.085 A 
ATOM      9  C8  UNK A          47.921  13.369  -5.205  0.00  0.00     0.075 A 
ATOM     10  C9  UNK A          48.865  14.211  -4.617  0.00  0.00     0.071 A 
ATOM     11  C11 UNK A          50.026  14.552  -5.312  0.00  0.00     0.074 A 
ENDROOT
BRANCH   5  12
ATOM     12  C4  UNK A          46.264  10.662  -8.727  0.00  0.00     0.004 A 
ATOM     13  C10 UNK A          46.517   9.348  -9.121  0.00  0.00     0.053 A 
ATOM     14  C13 UNK A          45.468   8.530  -9.539  0.00  0.00     0.099 A 
ATOM     15  C15 UNK A          44.165   9.027  -9.566  0.00  0.00     0.098 A 
ATOM     16  C14 UNK A          43.911  10.341  -9.172  0.00  0.00     0.040 A 
ATOM     17  C12 UNK A          44.960  11.159  -8.753  0.00  0.00     0.017 A 
BRANCH  14  18
ATOM     18  O6  UNK A          45.728   7.249  -9.922  0.00  0.00    -0.358 OA
ATOM     19  H9  UNK A          46.652   7.028  -9.724  0.00  0.00     0.217 HD
ENDBRANCH  14  18
BRANCH  15  20
ATOM     20  O7  UNK A          43.131   8.237  -9.971  0.00  0.00    -0.358 OA
ATOM     21  H10 UNK A          42.436   8.785 -10.369  0.00  0.00     0.217 HD
ENDBRANCH  15  20
ENDBRANCH   5  12
BRANCH   6  22
ATOM     22  O2  UNK A          48.590  11.276 -10.331  0.00  0.00    -0.355 OA
ATOM     23  H6  UNK A          49.377  11.661 -10.751  0.00  0.00     0.218 HD
ENDBRANCH   6  22
BRANCH   8  24
ATOM     24  O3  UNK A          51.398  14.419  -7.229  0.00  0.00    -0.360 OA
ATOM     25  H7  UNK A          51.729  15.259  -6.876  0.00  0.00     0.217 HD
ENDBRANCH   8  24
BRANCH  10  26
ATOM     26  O5  UNK A          48.653  14.699  -3.365  0.00  0.00    -0.361 OA
ATOM     27  H8  UNK A          49.505  14.973  -2.984  0.00  0.00     0.217 HD
ENDBRANCH  10  26
TORSDOF 6
ENDMDL
MODEL 15
REMARK VINA RESULT:      -5.8      9.716     13.315
REMARK  6 active torsions:
REMARK  status: ('A' for Active; 'I' for Inactive)
REMARK    1  A    between atoms: O2_2  and  C5_12 
REMARK    2  A    between atoms: O3_3  and  C7_14 
REMARK    3  A    between atoms: O5_5  and  C9_16 
REMARK    4  A    between atoms: O6_6  and  C13_20 
REMARK    5  A    between atoms: O7_7  and  C15_22 
REMARK    6  A    between atoms: C3_10  and  C4_11 
ROOT
ATOM      1  O1  UNK A          47.339  10.319  -7.818  0.00  0.00    -0.306 OA
ATOM      2  O4  UNK A          49.795   7.084  -7.489  0.00  0.00    -0.284 OA
ATOM      3  C1  UNK A          47.978   8.108  -8.589  0.00  0.00     0.084 A 
ATOM      4  C2  UNK A          47.171   9.243  -8.650  0.00  0.00     0.096 A 
ATOM      5  C3  UNK A          48.363  10.282  -6.885  0.00  0.00     0.123 A 
ATOM      6  C5  UNK A          49.205   9.245  -6.718  0.00  0.00     0.152 A 
ATOM      7  C6  UNK A          49.059   8.056  -7.592  0.00  0.00     0.223 A 
ATOM      8  C7  UNK A          47.760   7.040  -9.463  0.00  0.00     0.085 A 
ATOM      9  C8  UNK A          46.138   9.315  -9.585  0.00  0.00     0.075 A 
ATOM     10  C9  UNK A          45.917   8.251 -10.460  0.00  0.00     0.071 A 
ATOM     11  C11 UNK A          46.727   7.115 -10.397  0.00  0.00     0.074 A 
ENDROOT
BRANCH   5  12
ATOM     12  C4  UNK A          48.432  11.499  -6.057  0.00  0.00     0.004 A 
ATOM     13  C10 UNK A          49.222  12.575  -6.462  0.00  0.00     0.053 A 
ATOM     14  C13 UNK A          49.286  13.727  -5.679  0.00  0.00     0.099 A 
ATOM     15  C15 UNK A          48.562  13.803  -4.489  0.00  0.00     0.098 A 
ATOM     16  C14 UNK A          47.772  12.727  -4.084  0.00  0.00     0.040 A 
ATOM     17  C12 UNK A          47.707  11.575  -4.868  0.00  0.00     0.017 A 
BRANCH  14  18
ATOM     18  O6  UNK A          50.061  14.771  -6.084  0.00  0.00    -0.358 OA
ATOM     19  H9  UNK A          50.998  14.559  -5.940  0.00  0.00     0.217 HD
ENDBRANCH  14  18
BRANCH  15  20
ATOM     20  O7  UNK A          48.615  14.924  -3.717  0.00  0.00    -0.358 OA
ATOM     21  H10 UNK A          48.185  14.754  -2.863  0.00  0.00     0.217 HD
ENDBRANCH  15  20
ENDBRANCH   5  12
BRANCH   6  22
ATOM     22  O2  UNK A          50.193   9.225  -5.758  0.00  0.00    -0.355 OA
ATOM     23  H6  UNK A          50.989   9.669  -6.094  0.00  0.00     0.218 HD
ENDBRANCH   6  22
BRANCH   8  24
ATOM     24  O3  UNK A          48.519   5.909  -9.445  0.00  0.00    -0.360 OA
ATOM     25  H7  UNK A          48.842   5.702 -10.335  0.00  0.00     0.217 HD
ENDBRANCH   8  24
BRANCH  10  26
ATOM     26  O5  UNK A          44.911   8.319 -11.372  0.00  0.00    -0.361 OA
ATOM     27  H8  UNK A          45.076   7.667 -12.075  0.00  0.00     0.217 HD
ENDBRANCH  10  26
TORSDOF 6
ENDMDL
MODEL 16
REMARK VINA RESULT:      -5.8     10.490     12.349
REMARK  6 active torsions:
REMARK  status: ('A' for Active; 'I' for Inactive)
REMARK    1  A    between atoms: O2_2  and  C5_12 
REMARK    2  A    between atoms: O3_3  and  C7_14 
REMARK    3  A    between atoms: O5_5  and  C9_16 
REMARK    4  A    between atoms: O6_6  and  C13_20 
REMARK    5  A    between atoms: O7_7  and  C15_22 
REMARK    6  A    between atoms: C3_10  and  C4_11 
ROOT
ATOM      1  O1  UNK A          48.774  10.437  -5.658  0.00  0.00    -0.306 OA
ATOM      2  O4  UNK A          51.169  13.608  -6.565  0.00  0.00    -0.284 OA
ATOM      3  C1  UNK A          50.665  11.845  -5.081  0.00  0.00     0.084 A 
ATOM      4  C2  UNK A          49.810  10.774  -4.827  0.00  0.00     0.096 A 
ATOM      5  C3  UNK A          48.577  11.187  -6.807  0.00  0.00     0.123 A 
ATOM      6  C5  UNK A          49.324  12.248  -7.163  0.00  0.00     0.152 A 
ATOM      7  C6  UNK A          50.453  12.652  -6.292  0.00  0.00     0.223 A 
ATOM      8  C7  UNK A          51.705  12.142  -4.197  0.00  0.00     0.085 A 
ATOM      9  C8  UNK A          49.990   9.994  -3.683  0.00  0.00     0.075 A 
ATOM     10  C9  UNK A          51.027  10.288  -2.798  0.00  0.00     0.071 A 
ATOM     11  C11 UNK A          51.883  11.361  -3.055  0.00  0.00     0.074 A 
ENDROOT
BRANCH   5  12
ATOM     12  C4  UNK A          47.433  10.719  -7.609  0.00  0.00     0.004 A 
ATOM     13  C10 UNK A          46.226  11.419  -7.579  0.00  0.00     0.053 A 
ATOM     14  C13 UNK A          45.144  10.977  -8.340  0.00  0.00     0.099 A 
ATOM     15  C15 UNK A          45.268   9.833  -9.130  0.00  0.00     0.098 A 
ATOM     16  C14 UNK A          46.474   9.134  -9.160  0.00  0.00     0.040 A 
ATOM     17  C12 UNK A          47.556   9.576  -8.400  0.00  0.00     0.017 A 
BRANCH  14  18
ATOM     18  O6  UNK A          43.970  11.667  -8.301  0.00  0.00    -0.358 OA
ATOM     19  H9  UNK A          43.257  11.123  -8.673  0.00  0.00     0.217 HD
ENDBRANCH  14  18
BRANCH  15  20
ATOM     20  O7  UNK A          44.218   9.393  -9.878  0.00  0.00    -0.358 OA
ATOM     21  H10 UNK A          44.374   9.596 -10.814  0.00  0.00     0.217 HD
ENDBRANCH  15  20
ENDBRANCH   5  12
BRANCH   6  22
ATOM     22  O2  UNK A          49.081  12.993  -8.297  0.00  0.00    -0.355 OA
ATOM     23  H6  UNK A          49.579  12.626  -9.046  0.00  0.00     0.218 HD
ENDBRANCH   6  22
BRANCH   8  24
ATOM     24  O3  UNK A          52.568  13.177  -4.399  0.00  0.00    -0.360 OA
ATOM     25  H7  UNK A          53.271  13.169  -3.731  0.00  0.00     0.217 HD
ENDBRANCH   8  24
BRANCH  10  26
ATOM     26  O5  UNK A          51.204   9.529  -1.683  0.00  0.00    -0.361 OA
ATOM     27  H8  UNK A          50.851   8.638  -1.848  0.00  0.00     0.217 HD
ENDBRANCH  10  26
TORSDOF 6
ENDMDL
MODEL 17
REMARK VINA RESULT:      -5.8     10.624     12.520
REMARK  6 active torsions:
REMARK  status: ('A' for Active; 'I' for Inactive)
REMARK    1  A    between atoms: O2_2  and  C5_12 
REMARK    2  A    between atoms: O3_3  and  C7_14 
REMARK    3  A    between atoms: O5_5  and  C9_16 
REMARK    4  A    between atoms: O6_6  and  C13_20 
REMARK    5  A    between atoms: O7_7  and  C15_22 
REMARK    6  A    between atoms: C3_10  and  C4_11 
ROOT
ATOM      1  O1  UNK A          49.281  12.334  -7.786  0.00  0.00    -0.306 OA
ATOM      2  O4  UNK A          50.362  11.860  -3.885  0.00  0.00    -0.284 OA
ATOM      3  C1  UNK A          50.844  12.808  -5.990  0.00  0.00     0.084 A 
ATOM      4  C2  UNK A          50.421  12.930  -7.312  0.00  0.00     0.096 A 
ATOM      5  C3  UNK A          48.510  11.589  -6.908  0.00  0.00     0.123 A 
ATOM      6  C5  UNK A          48.811  11.386  -5.612  0.00  0.00     0.152 A 
ATOM      7  C6  UNK A          50.038  12.007  -5.056  0.00  0.00     0.223 A 
ATOM      8  C7  UNK A          52.016  13.437  -5.564  0.00  0.00     0.085 A 
ATOM      9  C8  UNK A          51.171  13.682  -8.218  0.00  0.00     0.075 A 
ATOM     10  C9  UNK A          52.341  14.312  -7.796  0.00  0.00     0.071 A 
ATOM     11  C11 UNK A          52.763  14.189  -6.471  0.00  0.00     0.074 A 
ENDROOT
BRANCH   5  12
ATOM     12  C4  UNK A          47.316  11.006  -7.544  0.00  0.00     0.004 A 
ATOM     13  C10 UNK A          47.390   9.753  -8.153  0.00  0.00     0.053 A 
ATOM     14  C13 UNK A          46.259   9.200  -8.753  0.00  0.00     0.099 A 
ATOM     15  C15 UNK A          45.053   9.902  -8.746  0.00  0.00     0.098 A 
ATOM     16  C14 UNK A          44.978  11.155  -8.138  0.00  0.00     0.040 A 
ATOM     17  C12 UNK A          46.109  11.707  -7.536  0.00  0.00     0.017 A 
BRANCH  14  18
ATOM     18  O6  UNK A          46.344   7.977  -9.346  0.00  0.00    -0.358 OA
ATOM     19  H9  UNK A          46.464   7.292  -8.668  0.00  0.00     0.217 HD
ENDBRANCH  14  18
BRANCH  15  20
ATOM     20  O7  UNK A          43.941   9.372  -9.329  0.00  0.00    -0.358 OA
ATOM     21  H10 UNK A          43.230  10.032  -9.337  0.00  0.00     0.217 HD
ENDBRANCH  15  20
ENDBRANCH   5  12
BRANCH   6  22
ATOM     22  O2  UNK A          48.040  10.612  -4.772  0.00  0.00    -0.355 OA
ATOM     23  H6  UNK A          47.333  10.179  -5.279  0.00  0.00     0.218 HD
ENDBRANCH   6  22
BRANCH   8  24
ATOM     24  O3  UNK A          52.474  13.349  -4.283  0.00  0.00    -0.360 OA
ATOM     25  H7  UNK A          52.216  14.133  -3.776  0.00  0.00     0.217 HD
ENDBRANCH   8  24
BRANCH  10  26
ATOM     26  O5  UNK A          53.073  15.046  -8.677  0.00  0.00    -0.361 OA
ATOM     27  H8  UNK A          53.983  15.128  -8.342  0.00  0.00     0.217 HD
ENDBRANCH  10  26
TORSDOF 6
ENDMDL
