MODEL 1
REMARK VINA RESULT:      -7.5      0.000      0.000
REMARK  6 active torsions:
REMARK  status: ('A' for Active; 'I' for Inactive)
REMARK    1  A    between atoms: O2_2  and  C5_12 
REMARK    2  A    between atoms: O3_3  and  C7_14 
REMARK    3  A    between atoms: O5_5  and  C9_16 
REMARK    4  A    between atoms: O6_6  and  C13_20 
REMARK    5  A    between atoms: O7_7  and  C15_22 
REMARK    6  A    between atoms: C3_10  and  C4_11 
ROOT
ATOM      1  O1  UNK A          39.641  15.127   0.033  0.00  0.00    -0.306 OA
ATOM      2  O4  UNK A          41.752  15.725  -3.402  0.00  0.00    -0.284 OA
ATOM      3  C1  UNK A          40.210  16.573  -1.832  0.00  0.00     0.084 A 
ATOM      4  C2  UNK A          39.515  16.307  -0.653  0.00  0.00     0.096 A 
ATOM      5  C3  UNK A          40.506  14.163  -0.461  0.00  0.00     0.123 A 
ATOM      6  C5  UNK A          41.227  14.292  -1.590  0.00  0.00     0.152 A 
ATOM      7  C6  UNK A          41.120  15.549  -2.368  0.00  0.00     0.223 A 
ATOM      8  C7  UNK A          40.041  17.794  -2.489  0.00  0.00     0.085 A 
ATOM      9  C8  UNK A          38.645  17.261  -0.126  0.00  0.00     0.075 A 
ATOM     10  C9  UNK A          38.474  18.482  -0.779  0.00  0.00     0.071 A 
ATOM     11  C11 UNK A          39.171  18.747  -1.959  0.00  0.00     0.074 A 
ENDROOT
BRANCH   5  12
ATOM     12  C4  UNK A          40.546  12.947   0.370  0.00  0.00     0.004 A 
ATOM     13  C10 UNK A          40.354  13.036   1.749  0.00  0.00     0.053 A 
ATOM     14  C13 UNK A          40.391  11.884   2.534  0.00  0.00     0.099 A 
ATOM     15  C15 UNK A          40.623  10.643   1.941  0.00  0.00     0.098 A 
ATOM     16  C14 UNK A          40.816  10.553   0.563  0.00  0.00     0.040 A 
ATOM     17  C12 UNK A          40.777  11.705  -0.223  0.00  0.00     0.017 A 
BRANCH  14  18
ATOM     18  O6  UNK A          40.203  11.984   3.879  0.00  0.00    -0.358 OA
ATOM     19  H9  UNK A          39.386  12.476   4.061  0.00  0.00     0.217 HD
ENDBRANCH  14  18
BRANCH  15  20
ATOM     20  O7  UNK A          40.660   9.511   2.698  0.00  0.00    -0.358 OA
ATOM     21  H10 UNK A          41.409   9.553   3.314  0.00  0.00     0.217 HD
ENDBRANCH  15  20
ENDBRANCH   5  12
BRANCH   6  22
ATOM     22  O2  UNK A          42.054  13.300  -2.072  0.00  0.00    -0.355 OA
ATOM     23  H6  UNK A          42.221  13.441  -3.018  0.00  0.00     0.218 HD
ENDBRANCH   6  22
BRANCH   8  24
ATOM     24  O3  UNK A          40.696  18.104  -3.643  0.00  0.00    -0.360 OA
ATOM     25  H7  UNK A          40.446  17.492  -4.351  0.00  0.00     0.217 HD
ENDBRANCH   8  24
BRANCH  10  26
ATOM     26  O5  UNK A          37.626  19.414  -0.266  0.00  0.00    -0.361 OA
ATOM     27  H8  UNK A          37.935  19.669   0.620  0.00  0.00     0.217 HD
ENDBRANCH  10  26
TORSDOF 6
ENDMDL
MODEL 2
REMARK VINA RESULT:      -7.2      1.183      6.433
REMARK  6 active torsions:
REMARK  status: ('A' for Active; 'I' for Inactive)
REMARK    1  A    between atoms: O2_2  and  C5_12 
REMARK    2  A    between atoms: O3_3  and  C7_14 
REMARK    3  A    between atoms: O5_5  and  C9_16 
REMARK    4  A    between atoms: O6_6  and  C13_20 
REMARK    5  A    between atoms: O7_7  and  C15_22 
REMARK    6  A    between atoms: C3_10  and  C4_11 
ROOT
ATOM      1  O1  UNK A          39.728  14.407   0.201  0.00  0.00    -0.306 OA
ATOM      2  O4  UNK A          42.323  12.748  -2.467  0.00  0.00    -0.284 OA
ATOM      3  C1  UNK A          40.964  12.462  -0.561  0.00  0.00     0.084 A 
ATOM      4  C2  UNK A          40.083  13.089   0.319  0.00  0.00     0.096 A 
ATOM      5  C3  UNK A          40.258  15.145  -0.846  0.00  0.00     0.123 A 
ATOM      6  C5  UNK A          41.123  14.663  -1.757  0.00  0.00     0.152 A 
ATOM      7  C6  UNK A          41.540  13.243  -1.667  0.00  0.00     0.223 A 
ATOM      8  C7  UNK A          41.291  11.115  -0.391  0.00  0.00     0.085 A 
ATOM      9  C8  UNK A          39.525  12.370   1.377  0.00  0.00     0.075 A 
ATOM     10  C9  UNK A          39.849  11.024   1.550  0.00  0.00     0.071 A 
ATOM     11  C11 UNK A          40.731  10.399   0.667  0.00  0.00     0.074 A 
ENDROOT
BRANCH   5  12
ATOM     12  C4  UNK A          39.795  16.543  -0.856  0.00  0.00     0.004 A 
ATOM     13  C10 UNK A          38.985  17.019   0.175  0.00  0.00     0.053 A 
ATOM     14  C13 UNK A          38.548  18.343   0.165  0.00  0.00     0.099 A 
ATOM     15  C15 UNK A          38.920  19.192  -0.878  0.00  0.00     0.098 A 
ATOM     16  C14 UNK A          39.729  18.717  -1.909  0.00  0.00     0.040 A 
ATOM     17  C12 UNK A          40.167  17.393  -1.899  0.00  0.00     0.017 A 
BRANCH  14  18
ATOM     18  O6  UNK A          37.757  18.796   1.177  0.00  0.00    -0.358 OA
ATOM     19  H9  UNK A          36.866  18.983   0.838  0.00  0.00     0.217 HD
ENDBRANCH  14  18
BRANCH  15  20
ATOM     20  O7  UNK A          38.500  20.489  -0.897  0.00  0.00    -0.358 OA
ATOM     21  H10 UNK A          39.245  21.070  -1.118  0.00  0.00     0.217 HD
ENDBRANCH  15  20
ENDBRANCH   5  12
BRANCH   6  22
ATOM     22  O2  UNK A          41.658  15.432  -2.768  0.00  0.00    -0.355 OA
ATOM     23  H6  UNK A          41.450  16.368  -2.615  0.00  0.00     0.218 HD
ENDBRANCH   6  22
BRANCH   8  24
ATOM     24  O3  UNK A          42.146  10.456  -1.222  0.00  0.00    -0.360 OA
ATOM     25  H7  UNK A          41.930   9.511  -1.253  0.00  0.00     0.217 HD
ENDBRANCH   8  24
BRANCH  10  26
ATOM     26  O5  UNK A          39.306  10.322   2.580  0.00  0.00    -0.361 OA
ATOM     27  H8  UNK A          38.349  10.227   2.429  0.00  0.00     0.217 HD
ENDBRANCH  10  26
TORSDOF 6
ENDMDL
MODEL 3
REMARK VINA RESULT:      -7.0      2.073      3.086
REMARK  6 active torsions:
REMARK  status: ('A' for Active; 'I' for Inactive)
REMARK    1  A    between atoms: O2_2  and  C5_12 
REMARK    2  A    between atoms: O3_3  and  C7_14 
REMARK    3  A    between atoms: O5_5  and  C9_16 
REMARK    4  A    between atoms: O6_6  and  C13_20 
REMARK    5  A    between atoms: O7_7  and  C15_22 
REMARK    6  A    between atoms: C3_10  and  C4_11 
ROOT
ATOM      1  O1  UNK A          39.300  17.445  -0.154  0.00  0.00    -0.306 OA
ATOM      2  O4  UNK A          40.635  18.963  -3.693  0.00  0.00    -0.284 OA
ATOM      3  C1  UNK A          39.805  19.383  -1.526  0.00  0.00     0.084 A 
ATOM      4  C2  UNK A          39.358  18.801  -0.341  0.00  0.00     0.096 A 
ATOM      5  C3  UNK A          39.718  16.617  -1.184  0.00  0.00     0.123 A 
ATOM      6  C5  UNK A          40.163  17.050  -2.378  0.00  0.00     0.152 A 
ATOM      7  C6  UNK A          40.237  18.509  -2.628  0.00  0.00     0.223 A 
ATOM      8  C7  UNK A          39.840  20.773  -1.660  0.00  0.00     0.085 A 
ATOM      9  C8  UNK A          38.940  19.609   0.718  0.00  0.00     0.075 A 
ATOM     10  C9  UNK A          38.974  20.997   0.588  0.00  0.00     0.071 A 
ATOM     11  C11 UNK A          39.423  21.577  -0.600  0.00  0.00     0.074 A 
ENDROOT
BRANCH   5  12
ATOM     12  C4  UNK A          39.605  15.185  -0.853  0.00  0.00     0.004 A 
ATOM     13  C10 UNK A          40.654  14.534  -0.204  0.00  0.00     0.053 A 
ATOM     14  C13 UNK A          40.546  13.180   0.110  0.00  0.00     0.099 A 
ATOM     15  C15 UNK A          39.390  12.475  -0.227  0.00  0.00     0.098 A 
ATOM     16  C14 UNK A          38.341  13.126  -0.876  0.00  0.00     0.040 A 
ATOM     17  C12 UNK A          38.448  14.481  -1.189  0.00  0.00     0.017 A 
BRANCH  14  18
ATOM     18  O6  UNK A          41.577  12.554   0.743  0.00  0.00    -0.358 OA
ATOM     19  H9  UNK A          42.423  12.884   0.398  0.00  0.00     0.217 HD
ENDBRANCH  14  18
BRANCH  15  20
ATOM     20  O7  UNK A          39.273  11.152   0.077  0.00  0.00    -0.358 OA
ATOM     21  H10 UNK A          38.375  10.848  -0.128  0.00  0.00     0.217 HD
ENDBRANCH  15  20
ENDBRANCH   5  12
BRANCH   6  22
ATOM     22  O2  UNK A          40.540  16.199  -3.395  0.00  0.00    -0.355 OA
ATOM     23  H6  UNK A          41.295  15.658  -3.109  0.00  0.00     0.218 HD
ENDBRANCH   6  22
BRANCH   8  24
ATOM     24  O3  UNK A          40.269  21.391  -2.796  0.00  0.00    -0.360 OA
ATOM     25  H7  UNK A          40.143  22.350  -2.730  0.00  0.00     0.217 HD
ENDBRANCH   8  24
BRANCH  10  26
ATOM     26  O5  UNK A          38.568  21.786   1.619  0.00  0.00    -0.361 OA
ATOM     27  H8  UNK A          39.140  21.621   2.388  0.00  0.00     0.217 HD
ENDBRANCH  10  26
TORSDOF 6
ENDMDL
MODEL 4
REMARK VINA RESULT:      -6.8     15.032     15.994
REMARK  6 active torsions:
REMARK  status: ('A' for Active; 'I' for Inactive)
REMARK    1  A    between atoms: O2_2  and  C5_12 
REMARK    2  A    between atoms: O3_3  and  C7_14 
REMARK    3  A    between atoms: O5_5  and  C9_16 
REMARK    4  A    between atoms: O6_6  and  C13_20 
REMARK    5  A    between atoms: O7_7  and  C15_22 
REMARK    6  A    between atoms: C3_10  and  C4_11 
ROOT
ATOM      1  O1  UNK A          43.233   2.010   7.847  0.00  0.00    -0.306 OA
ATOM      2  O4  UNK A          43.754   5.220  10.303  0.00  0.00    -0.284 OA
ATOM      3  C1  UNK A          44.715   3.680   8.798  0.00  0.00     0.084 A 
ATOM      4  C2  UNK A          44.472   2.581   7.976  0.00  0.00     0.096 A 
ATOM      5  C3  UNK A          42.174   2.558   8.555  0.00  0.00     0.123 A 
ATOM      6  C5  UNK A          42.277   3.611   9.386  0.00  0.00     0.152 A 
ATOM      7  C6  UNK A          43.599   4.259   9.561  0.00  0.00     0.223 A 
ATOM      8  C7  UNK A          46.001   4.219   8.891  0.00  0.00     0.085 A 
ATOM      9  C8  UNK A          45.515   2.013   7.244  0.00  0.00     0.075 A 
ATOM     10  C9  UNK A          46.800   2.549   7.334  0.00  0.00     0.071 A 
ATOM     11  C11 UNK A          47.041   3.650   8.157  0.00  0.00     0.074 A 
ENDROOT
BRANCH   5  12
ATOM     12  C4  UNK A          40.902   1.851   8.326  0.00  0.00     0.004 A 
ATOM     13  C10 UNK A          40.133   2.143   7.198  0.00  0.00     0.053 A 
ATOM     14  C13 UNK A          38.930   1.472   6.982  0.00  0.00     0.099 A 
ATOM     15  C15 UNK A          38.493   0.511   7.894  0.00  0.00     0.098 A 
ATOM     16  C14 UNK A          39.261   0.220   9.021  0.00  0.00     0.040 A 
ATOM     17  C12 UNK A          40.465   0.889   9.238  0.00  0.00     0.017 A 
BRANCH  14  18
ATOM     18  O6  UNK A          38.188   1.766   5.878  0.00  0.00    -0.358 OA
ATOM     19  H9  UNK A          38.211   1.019   5.258  0.00  0.00     0.217 HD
ENDBRANCH  14  18
BRANCH  15  20
ATOM     20  O7  UNK A          37.320  -0.151   7.692  0.00  0.00    -0.358 OA
ATOM     21  H10 UNK A          36.645   0.184   8.303  0.00  0.00     0.217 HD
ENDBRANCH  15  20
ENDBRANCH   5  12
BRANCH   6  22
ATOM     22  O2  UNK A          41.210   4.112  10.101  0.00  0.00    -0.355 OA
ATOM     23  H6  UNK A          41.002   5.011   9.797  0.00  0.00     0.218 HD
ENDBRANCH   6  22
BRANCH   8  24
ATOM     24  O3  UNK A          46.292   5.293   9.679  0.00  0.00    -0.360 OA
ATOM     25  H7  UNK A          45.479   5.695  10.020  0.00  0.00     0.217 HD
ENDBRANCH   8  24
BRANCH  10  26
ATOM     26  O5  UNK A          47.818   1.997   6.620  0.00  0.00    -0.361 OA
ATOM     27  H8  UNK A          47.928   2.493   5.791  0.00  0.00     0.217 HD
ENDBRANCH  10  26
TORSDOF 6
ENDMDL
MODEL 5
REMARK VINA RESULT:      -6.7      1.873      2.663
REMARK  6 active torsions:
REMARK  status: ('A' for Active; 'I' for Inactive)
REMARK    1  A    between atoms: O2_2  and  C5_12 
REMARK    2  A    between atoms: O3_3  and  C7_14 
REMARK    3  A    between atoms: O5_5  and  C9_16 
REMARK    4  A    between atoms: O6_6  and  C13_20 
REMARK    5  A    between atoms: O7_7  and  C15_22 
REMARK    6  A    between atoms: C3_10  and  C4_11 
ROOT
ATOM      1  O1  UNK A          39.396  16.347  -0.214  0.00  0.00    -0.306 OA
ATOM      2  O4  UNK A          40.595  18.769  -3.264  0.00  0.00    -0.284 OA
ATOM      3  C1  UNK A          39.421  18.550  -1.230  0.00  0.00     0.084 A 
ATOM      4  C2  UNK A          39.042  17.671  -0.218  0.00  0.00     0.096 A 
ATOM      5  C3  UNK A          40.175  15.866  -1.255  0.00  0.00     0.123 A 
ATOM      6  C5  UNK A          40.600  16.607  -2.295  0.00  0.00     0.152 A 
ATOM      7  C6  UNK A          40.237  18.044  -2.345  0.00  0.00     0.223 A 
ATOM      8  C7  UNK A          39.029  19.891  -1.183  0.00  0.00     0.085 A 
ATOM      9  C8  UNK A          38.266  18.127   0.848  0.00  0.00     0.075 A 
ATOM     10  C9  UNK A          37.873  19.464   0.899  0.00  0.00     0.071 A 
ATOM     11  C11 UNK A          38.254  20.344  -0.115  0.00  0.00     0.074 A 
ENDROOT
BRANCH   5  12
ATOM     12  C4  UNK A          40.483  14.431  -1.127  0.00  0.00     0.004 A 
ATOM     13  C10 UNK A          39.604  13.584  -0.452  0.00  0.00     0.053 A 
ATOM     14  C13 UNK A          39.895  12.226  -0.333  0.00  0.00     0.099 A 
ATOM     15  C15 UNK A          41.068  11.714  -0.888  0.00  0.00     0.098 A 
ATOM     16  C14 UNK A          41.948  12.559  -1.563  0.00  0.00     0.040 A 
ATOM     17  C12 UNK A          41.656  13.918  -1.683  0.00  0.00     0.017 A 
BRANCH  14  18
ATOM     18  O6  UNK A          39.029  11.410   0.329  0.00  0.00    -0.358 OA
ATOM     19  H9  UNK A          39.431  11.112   1.161  0.00  0.00     0.217 HD
ENDBRANCH  14  18
BRANCH  15  20
ATOM     20  O7  UNK A          41.363  10.388  -0.780  0.00  0.00    -0.358 OA
ATOM     21  H10 UNK A          41.980  10.131  -1.483  0.00  0.00     0.217 HD
ENDBRANCH  15  20
ENDBRANCH   5  12
BRANCH   6  22
ATOM     22  O2  UNK A          41.346  16.091  -3.331  0.00  0.00    -0.355 OA
ATOM     23  H6  UNK A          40.958  15.254  -3.633  0.00  0.00     0.218 HD
ENDBRANCH   6  22
BRANCH   8  24
ATOM     24  O3  UNK A          39.373  20.791  -2.146  0.00  0.00    -0.360 OA
ATOM     25  H7  UNK A          38.851  21.603  -2.054  0.00  0.00     0.217 HD
ENDBRANCH   8  24
BRANCH  10  26
ATOM     26  O5  UNK A          37.117  19.911   1.938  0.00  0.00    -0.361 OA
ATOM     27  H8  UNK A          37.472  19.546   2.767  0.00  0.00     0.217 HD
ENDBRANCH  10  26
TORSDOF 6
ENDMDL
MODEL 6
REMARK VINA RESULT:      -6.6     14.840     15.591
REMARK  6 active torsions:
REMARK  status: ('A' for Active; 'I' for Inactive)
REMARK    1  A    between atoms: O2_2  and  C5_12 
REMARK    2  A    between atoms: O3_3  and  C7_14 
REMARK    3  A    between atoms: O5_5  and  C9_16 
REMARK    4  A    between atoms: O6_6  and  C13_20 
REMARK    5  A    between atoms: O7_7  and  C15_22 
REMARK    6  A    between atoms: C3_10  and  C4_11 
ROOT
ATOM      1  O1  UNK A          42.423   3.345   9.031  0.00  0.00    -0.306 OA
ATOM      2  O4  UNK A          46.042   2.338   7.449  0.00  0.00    -0.284 OA
ATOM      3  C1  UNK A          44.795   3.807   8.809  0.00  0.00     0.084 A 
ATOM      4  C2  UNK A          43.531   4.099   9.317  0.00  0.00     0.096 A 
ATOM      5  C3  UNK A          42.571   2.236   8.212  0.00  0.00     0.123 A 
ATOM      6  C5  UNK A          43.732   1.851   7.652  0.00  0.00     0.152 A 
ATOM      7  C6  UNK A          44.957   2.640   7.929  0.00  0.00     0.223 A 
ATOM      8  C7  UNK A          45.889   4.614   9.134  0.00  0.00     0.085 A 
ATOM      9  C8  UNK A          43.352   5.203  10.152  0.00  0.00     0.075 A 
ATOM     10  C9  UNK A          44.442   6.010  10.479  0.00  0.00     0.071 A 
ATOM     11  C11 UNK A          45.707   5.715   9.970  0.00  0.00     0.074 A 
ENDROOT
BRANCH   5  12
ATOM     12  C4  UNK A          41.306   1.515   7.987  0.00  0.00     0.004 A 
ATOM     13  C10 UNK A          40.353   2.033   7.109  0.00  0.00     0.053 A 
ATOM     14  C13 UNK A          39.157   1.350   6.895  0.00  0.00     0.099 A 
ATOM     15  C15 UNK A          38.911   0.148   7.560  0.00  0.00     0.098 A 
ATOM     16  C14 UNK A          39.864  -0.371   8.437  0.00  0.00     0.040 A 
ATOM     17  C12 UNK A          41.061   0.312   8.651  0.00  0.00     0.017 A 
BRANCH  14  18
ATOM     18  O6  UNK A          38.233   1.866   6.037  0.00  0.00    -0.358 OA
ATOM     19  H9  UNK A          37.571   1.190   5.822  0.00  0.00     0.217 HD
ENDBRANCH  14  18
BRANCH  15  20
ATOM     20  O7  UNK A          37.747  -0.530   7.358  0.00  0.00    -0.358 OA
ATOM     21  H10 UNK A          36.993   0.049   7.551  0.00  0.00     0.217 HD
ENDBRANCH  15  20
ENDBRANCH   5  12
BRANCH   6  22
ATOM     22  O2  UNK A          43.839   0.761   6.815  0.00  0.00    -0.355 OA
ATOM     23  H6  UNK A          43.460  -0.023   7.244  0.00  0.00     0.218 HD
ENDBRANCH   6  22
BRANCH   8  24
ATOM     24  O3  UNK A          47.145   4.372   8.665  0.00  0.00    -0.360 OA
ATOM     25  H7  UNK A          47.786   4.963   9.088  0.00  0.00     0.217 HD
ENDBRANCH   8  24
BRANCH  10  26
ATOM     26  O5  UNK A          44.270   7.086  11.294  0.00  0.00    -0.361 OA
ATOM     27  H8  UNK A          45.000   7.712  11.149  0.00  0.00     0.217 HD
ENDBRANCH  10  26
TORSDOF 6
ENDMDL
MODEL 7
REMARK VINA RESULT:      -6.5     15.119     18.069
REMARK  6 active torsions:
REMARK  status: ('A' for Active; 'I' for Inactive)
REMARK    1  A    between atoms: O2_2  and  C5_12 
REMARK    2  A    between atoms: O3_3  and  C7_14 
REMARK    3  A    between atoms: O5_5  and  C9_16 
REMARK    4  A    between atoms: O6_6  and  C13_20 
REMARK    5  A    between atoms: O7_7  and  C15_22 
REMARK    6  A    between atoms: C3_10  and  C4_11 
ROOT
ATOM      1  O1  UNK A          39.708   0.372   8.619  0.00  0.00    -0.306 OA
ATOM      2  O4  UNK A          43.444  -0.770   9.779  0.00  0.00    -0.284 OA
ATOM      3  C1  UNK A          41.880   0.975   9.520  0.00  0.00     0.084 A 
ATOM      4  C2  UNK A          40.590   1.302   9.106  0.00  0.00     0.096 A 
ATOM      5  C3  UNK A          40.114  -0.951   8.549  0.00  0.00     0.123 A 
ATOM      6  C5  UNK A          41.332  -1.396   8.908  0.00  0.00     0.152 A 
ATOM      7  C6  UNK A          42.321  -0.425   9.435  0.00  0.00     0.223 A 
ATOM      8  C7  UNK A          42.736   1.966  10.006  0.00  0.00     0.085 A 
ATOM      9  C8  UNK A          40.149   2.624   9.174  0.00  0.00     0.075 A 
ATOM     10  C9  UNK A          41.001   3.616   9.659  0.00  0.00     0.071 A 
ATOM     11  C11 UNK A          42.292   3.287  10.074  0.00  0.00     0.074 A 
ENDROOT
BRANCH   5  12
ATOM     12  C4  UNK A          39.073  -1.844   8.010  0.00  0.00     0.004 A 
ATOM     13  C10 UNK A          39.358  -2.677   6.927  0.00  0.00     0.053 A 
ATOM     14  C13 UNK A          38.373  -3.523   6.419  0.00  0.00     0.099 A 
ATOM     15  C15 UNK A          37.101  -3.535   6.991  0.00  0.00     0.098 A 
ATOM     16  C14 UNK A          36.815  -2.702   8.073  0.00  0.00     0.040 A 
ATOM     17  C12 UNK A          37.801  -1.857   8.583  0.00  0.00     0.017 A 
BRANCH  14  18
ATOM     18  O6  UNK A          38.663  -4.330   5.361  0.00  0.00    -0.358 OA
ATOM     19  H9  UNK A          37.899  -4.894   5.159  0.00  0.00     0.217 HD
ENDBRANCH  14  18
BRANCH  15  20
ATOM     20  O7  UNK A          36.131  -4.358   6.504  0.00  0.00    -0.358 OA
ATOM     21  H10 UNK A          36.059  -4.246   5.543  0.00  0.00     0.217 HD
ENDBRANCH  15  20
ENDBRANCH   5  12
BRANCH   6  22
ATOM     22  O2  UNK A          41.716  -2.715   8.795  0.00  0.00    -0.355 OA
ATOM     23  H6  UNK A          42.539  -2.863   9.289  0.00  0.00     0.218 HD
ENDBRANCH   6  22
BRANCH   8  24
ATOM     24  O3  UNK A          44.006   1.700  10.423  0.00  0.00    -0.360 OA
ATOM     25  H7  UNK A          44.045   1.660  11.391  0.00  0.00     0.217 HD
ENDBRANCH   8  24
BRANCH  10  26
ATOM     26  O5  UNK A          40.573   4.906   9.727  0.00  0.00    -0.361 OA
ATOM     27  H8  UNK A          40.282   5.095  10.635  0.00  0.00     0.217 HD
ENDBRANCH  10  26
TORSDOF 6
ENDMDL
MODEL 8
REMARK VINA RESULT:      -6.5     13.384     15.517
REMARK  6 active torsions:
REMARK  status: ('A' for Active; 'I' for Inactive)
REMARK    1  A    between atoms: O2_2  and  C5_12 
REMARK    2  A    between atoms: O3_3  and  C7_14 
REMARK    3  A    between atoms: O5_5  and  C9_16 
REMARK    4  A    between atoms: O6_6  and  C13_20 
REMARK    5  A    between atoms: O7_7  and  C15_22 
REMARK    6  A    between atoms: C3_10  and  C4_11 
ROOT
ATOM      1  O1  UNK A          42.370  21.260  12.003  0.00  0.00    -0.306 OA
ATOM      2  O4  UNK A          45.615  18.967  11.093  0.00  0.00    -0.284 OA
ATOM      3  C1  UNK A          43.388  19.061  11.863  0.00  0.00     0.084 A 
ATOM      4  C2  UNK A          42.314  19.900  12.157  0.00  0.00     0.096 A 
ATOM      5  C3  UNK A          43.541  21.824  11.520  0.00  0.00     0.123 A 
ATOM      6  C5  UNK A          44.650  21.128  11.207  0.00  0.00     0.152 A 
ATOM      7  C6  UNK A          44.637  19.653  11.363  0.00  0.00     0.223 A 
ATOM      8  C7  UNK A          43.273  17.680  12.042  0.00  0.00     0.085 A 
ATOM      9  C8  UNK A          41.119  19.361  12.635  0.00  0.00     0.075 A 
ATOM     10  C9  UNK A          41.000  17.983  12.815  0.00  0.00     0.071 A 
ATOM     11  C11 UNK A          42.076  17.145  12.519  0.00  0.00     0.074 A 
ENDROOT
BRANCH   5  12
ATOM     12  C4  UNK A          43.468  23.290  11.401  0.00  0.00     0.004 A 
ATOM     13  C10 UNK A          43.677  23.903  10.165  0.00  0.00     0.053 A 
ATOM     14  C13 UNK A          43.606  25.290  10.053  0.00  0.00     0.099 A 
ATOM     15  C15 UNK A          43.327  26.068  11.177  0.00  0.00     0.098 A 
ATOM     16  C14 UNK A          43.117  25.456  12.413  0.00  0.00     0.040 A 
ATOM     17  C12 UNK A          43.188  24.068  12.525  0.00  0.00     0.017 A 
BRANCH  14  18
ATOM     18  O6  UNK A          43.814  25.877   8.841  0.00  0.00    -0.358 OA
ATOM     19  H9  UNK A          43.882  25.195   8.153  0.00  0.00     0.217 HD
ENDBRANCH  14  18
BRANCH  15  20
ATOM     20  O7  UNK A          43.253  27.425  11.080  0.00  0.00    -0.358 OA
ATOM     21  H10 UNK A          43.708  27.832  11.834  0.00  0.00     0.217 HD
ENDBRANCH  15  20
ENDBRANCH   5  12
BRANCH   6  22
ATOM     22  O2  UNK A          45.810  21.722  10.760  0.00  0.00    -0.355 OA
ATOM     23  H6  UNK A          46.233  22.208  11.486  0.00  0.00     0.218 HD
ENDBRANCH   6  22
BRANCH   8  24
ATOM     24  O3  UNK A          44.291  16.817  11.769  0.00  0.00    -0.360 OA
ATOM     25  H7  UNK A          45.004  17.270  11.294  0.00  0.00     0.217 HD
ENDBRANCH   8  24
BRANCH  10  26
ATOM     26  O5  UNK A          39.836  17.456  13.281  0.00  0.00    -0.361 OA
ATOM     27  H8  UNK A          39.951  16.499  13.409  0.00  0.00     0.217 HD
ENDBRANCH  10  26
TORSDOF 6
ENDMDL
MODEL 9
REMARK VINA RESULT:      -6.4     24.965     28.232
REMARK  6 active torsions:
REMARK  status: ('A' for Active; 'I' for Inactive)
REMARK    1  A    between atoms: O2_2  and  C5_12 
REMARK    2  A    between atoms: O3_3  and  C7_14 
REMARK    3  A    between atoms: O5_5  and  C9_16 
REMARK    4  A    between atoms: O6_6  and  C13_20 
REMARK    5  A    between atoms: O7_7  and  C15_22 
REMARK    6  A    between atoms: C3_10  and  C4_11 
ROOT
ATOM      1  O1  UNK A          47.993 -11.187  -3.986  0.00  0.00    -0.306 OA
ATOM      2  O4  UNK A          50.538 -12.349  -6.949  0.00  0.00    -0.284 OA
ATOM      3  C1  UNK A          49.833 -10.650  -5.474  0.00  0.00     0.084 A 
ATOM      4  C2  UNK A          48.934 -10.313  -4.464  0.00  0.00     0.096 A 
ATOM      5  C3  UNK A          47.942 -12.464  -4.522  0.00  0.00     0.123 A 
ATOM      6  C5  UNK A          48.746 -12.911  -5.505  0.00  0.00     0.152 A 
ATOM      7  C6  UNK A          49.777 -11.999  -6.056  0.00  0.00     0.223 A 
ATOM      8  C7  UNK A          50.771  -9.716  -5.922  0.00  0.00     0.085 A 
ATOM      9  C8  UNK A          48.966  -9.038  -3.897  0.00  0.00     0.075 A 
ATOM     10  C9  UNK A          49.902  -8.104  -4.342  0.00  0.00     0.071 A 
ATOM     11  C11 UNK A          50.802  -8.443  -5.354  0.00  0.00     0.074 A 
ENDROOT
BRANCH   5  12
ATOM     12  C4  UNK A          46.888 -13.299  -3.921  0.00  0.00     0.004 A 
ATOM     13  C10 UNK A          45.607 -13.312  -4.472  0.00  0.00     0.053 A 
ATOM     14  C13 UNK A          44.610 -14.104  -3.903  0.00  0.00     0.099 A 
ATOM     15  C15 UNK A          44.893 -14.882  -2.781  0.00  0.00     0.098 A 
ATOM     16  C14 UNK A          46.174 -14.870  -2.229  0.00  0.00     0.040 A 
ATOM     17  C12 UNK A          47.172 -14.079  -2.798  0.00  0.00     0.017 A 
BRANCH  14  18
ATOM     18  O6  UNK A          43.362 -14.107  -4.450  0.00  0.00    -0.358 OA
ATOM     19  H9  UNK A          43.421 -13.930  -5.403  0.00  0.00     0.217 HD
ENDBRANCH  14  18
BRANCH  15  20
ATOM     20  O7  UNK A          43.928 -15.661  -2.217  0.00  0.00    -0.358 OA
ATOM     21  H10 UNK A          44.337 -16.318  -1.633  0.00  0.00     0.217 HD
ENDBRANCH  15  20
ENDBRANCH   5  12
BRANCH   6  22
ATOM     22  O2  UNK A          48.649 -14.178  -6.039  0.00  0.00    -0.355 OA
ATOM     23  H6  UNK A          49.307 -14.761  -5.628  0.00  0.00     0.218 HD
ENDBRANCH   6  22
BRANCH   8  24
ATOM     24  O3  UNK A          51.672  -9.995  -6.906  0.00  0.00    -0.360 OA
ATOM     25  H7  UNK A          51.790 -10.952  -6.999  0.00  0.00     0.217 HD
ENDBRANCH   8  24
BRANCH  10  26
ATOM     26  O5  UNK A          49.935  -6.861  -3.791  0.00  0.00    -0.361 OA
ATOM     27  H8  UNK A          50.852  -6.648  -3.547  0.00  0.00     0.217 HD
ENDBRANCH  10  26
TORSDOF 6
ENDMDL
MODEL 10
REMARK VINA RESULT:      -6.4     13.137     15.697
REMARK  6 active torsions:
REMARK  status: ('A' for Active; 'I' for Inactive)
REMARK    1  A    between atoms: O2_2  and  C5_12 
REMARK    2  A    between atoms: O3_3  and  C7_14 
REMARK    3  A    between atoms: O5_5  and  C9_16 
REMARK    4  A    between atoms: O6_6  and  C13_20 
REMARK    5  A    between atoms: O7_7  and  C15_22 
REMARK    6  A    between atoms: C3_10  and  C4_11 
ROOT
ATOM      1  O1  UNK A          44.478  21.315  11.732  0.00  0.00    -0.306 OA
ATOM      2  O4  UNK A          41.206  18.916  11.341  0.00  0.00    -0.284 OA
ATOM      3  C1  UNK A          43.524  19.083  11.742  0.00  0.00     0.084 A 
ATOM      4  C2  UNK A          44.603  19.957  11.863  0.00  0.00     0.096 A 
ATOM      5  C3  UNK A          43.220  21.842  11.482  0.00  0.00     0.123 A 
ATOM      6  C5  UNK A          42.101  21.109  11.335  0.00  0.00     0.152 A 
ATOM      7  C6  UNK A          42.190  19.635  11.463  0.00  0.00     0.223 A 
ATOM      8  C7  UNK A          43.713  17.706  11.884  0.00  0.00     0.085 A 
ATOM      9  C8  UNK A          45.879  19.457  12.125  0.00  0.00     0.075 A 
ATOM     10  C9  UNK A          46.071  18.082  12.268  0.00  0.00     0.071 A 
ATOM     11  C11 UNK A          44.989  17.209  12.147  0.00  0.00     0.074 A 
ENDROOT
BRANCH   5  12
ATOM     12  C4  UNK A          43.226  23.311  11.364  0.00  0.00     0.004 A 
ATOM     13  C10 UNK A          43.534  23.914  10.144  0.00  0.00     0.053 A 
ATOM     14  C13 UNK A          43.538  25.303  10.033  0.00  0.00     0.099 A 
ATOM     15  C15 UNK A          43.234  26.092  11.144  0.00  0.00     0.098 A 
ATOM     16  C14 UNK A          42.926  25.491  12.363  0.00  0.00     0.040 A 
ATOM     17  C12 UNK A          42.921  24.100  12.474  0.00  0.00     0.017 A 
BRANCH  14  18
ATOM     18  O6  UNK A          43.842  25.880   8.838  0.00  0.00    -0.358 OA
ATOM     19  H9  UNK A          44.083  25.194   8.194  0.00  0.00     0.217 HD
ENDBRANCH  14  18
BRANCH  15  20
ATOM     20  O7  UNK A          43.233  27.451  11.047  0.00  0.00    -0.358 OA
ATOM     21  H10 UNK A          42.870  27.718  10.188  0.00  0.00     0.217 HD
ENDBRANCH  15  20
ENDBRANCH   5  12
BRANCH   6  22
ATOM     22  O2  UNK A          40.871  21.663  11.053  0.00  0.00    -0.355 OA
ATOM     23  H6  UNK A          40.285  20.989  10.671  0.00  0.00     0.218 HD
ENDBRANCH   6  22
BRANCH   8  24
ATOM     24  O3  UNK A          42.692  16.810  11.775  0.00  0.00    -0.360 OA
ATOM     25  H7  UNK A          42.291  16.856  10.894  0.00  0.00     0.217 HD
ENDBRANCH   8  24
BRANCH  10  26
ATOM     26  O5  UNK A          47.314  17.593  12.524  0.00  0.00    -0.361 OA
ATOM     27  H8  UNK A          47.974  18.170  12.103  0.00  0.00     0.217 HD
ENDBRANCH  10  26
TORSDOF 6
ENDMDL
MODEL 11
REMARK VINA RESULT:      -6.4     15.983     18.387
REMARK  6 active torsions:
REMARK  status: ('A' for Active; 'I' for Inactive)
REMARK    1  A    between atoms: O2_2  and  C5_12 
REMARK    2  A    between atoms: O3_3  and  C7_14 
REMARK    3  A    between atoms: O5_5  and  C9_16 
REMARK    4  A    between atoms: O6_6  and  C13_20 
REMARK    5  A    between atoms: O7_7  and  C15_22 
REMARK    6  A    between atoms: C3_10  and  C4_11 
ROOT
ATOM      1  O1  UNK A          45.217   0.164   9.936  0.00  0.00    -0.306 OA
ATOM      2  O4  UNK A          44.383   2.243   6.532  0.00  0.00    -0.284 OA
ATOM      3  C1  UNK A          46.000   1.544   8.099  0.00  0.00     0.084 A 
ATOM      4  C2  UNK A          46.219   0.817   9.268  0.00  0.00     0.096 A 
ATOM      5  C3  UNK A          43.932   0.218   9.418  0.00  0.00     0.123 A 
ATOM      6  C5  UNK A          43.586   0.890   8.305  0.00  0.00     0.152 A 
ATOM      7  C6  UNK A          44.637   1.616   7.552  0.00  0.00     0.223 A 
ATOM      8  C7  UNK A          47.061   2.192   7.462  0.00  0.00     0.085 A 
ATOM      9  C8  UNK A          47.504   0.736   9.809  0.00  0.00     0.075 A 
ATOM     10  C9  UNK A          48.566   1.382   9.175  0.00  0.00     0.071 A 
ATOM     11  C11 UNK A          48.344   2.108   8.004  0.00  0.00     0.074 A 
ENDROOT
BRANCH   5  12
ATOM     12  C4  UNK A          42.953  -0.526  10.231  0.00  0.00     0.004 A 
ATOM     13  C10 UNK A          42.604  -1.831   9.883  0.00  0.00     0.053 A 
ATOM     14  C13 UNK A          41.678  -2.534  10.652  0.00  0.00     0.099 A 
ATOM     15  C15 UNK A          41.100  -1.932  11.770  0.00  0.00     0.098 A 
ATOM     16  C14 UNK A          41.448  -0.627  12.118  0.00  0.00     0.040 A 
ATOM     17  C12 UNK A          42.375   0.076  11.349  0.00  0.00     0.017 A 
BRANCH  14  18
ATOM     18  O6  UNK A          41.344  -3.807  10.302  0.00  0.00    -0.358 OA
ATOM     19  H9  UNK A          41.137  -3.843   9.354  0.00  0.00     0.217 HD
ENDBRANCH  14  18
BRANCH  15  20
ATOM     20  O7  UNK A          40.195  -2.610  12.531  0.00  0.00    -0.358 OA
ATOM     21  H10 UNK A          39.968  -2.086  13.315  0.00  0.00     0.217 HD
ENDBRANCH  15  20
ENDBRANCH   5  12
BRANCH   6  22
ATOM     22  O2  UNK A          42.292   0.950   7.834  0.00  0.00    -0.355 OA
ATOM     23  H6  UNK A          42.139   1.806   7.401  0.00  0.00     0.218 HD
ENDBRANCH   6  22
BRANCH   8  24
ATOM     24  O3  UNK A          46.901   2.914   6.318  0.00  0.00    -0.360 OA
ATOM     25  H7  UNK A          46.848   3.861   6.518  0.00  0.00     0.217 HD
ENDBRANCH   8  24
BRANCH  10  26
ATOM     26  O5  UNK A          49.818   1.303   9.699  0.00  0.00    -0.361 OA
ATOM     27  H8  UNK A          50.458   1.622   9.040  0.00  0.00     0.217 HD
ENDBRANCH  10  26
TORSDOF 6
ENDMDL
MODEL 12
REMARK VINA RESULT:      -6.3     15.143     16.202
REMARK  6 active torsions:
REMARK  status: ('A' for Active; 'I' for Inactive)
REMARK    1  A    between atoms: O2_2  and  C5_12 
REMARK    2  A    between atoms: O3_3  and  C7_14 
REMARK    3  A    between atoms: O5_5  and  C9_16 
REMARK    4  A    between atoms: O6_6  and  C13_20 
REMARK    5  A    between atoms: O7_7  and  C15_22 
REMARK    6  A    between atoms: C3_10  and  C4_11 
ROOT
ATOM      1  O1  UNK A          43.506   1.840   7.527  0.00  0.00    -0.306 OA
ATOM      2  O4  UNK A          44.039   4.817  10.259  0.00  0.00    -0.284 OA
ATOM      3  C1  UNK A          44.989   3.432   8.603  0.00  0.00     0.084 A 
ATOM      4  C2  UNK A          44.741   2.410   7.688  0.00  0.00     0.096 A 
ATOM      5  C3  UNK A          42.455   2.309   8.299  0.00  0.00     0.123 A 
ATOM      6  C5  UNK A          42.562   3.282   9.223  0.00  0.00     0.152 A 
ATOM      7  C6  UNK A          43.881   3.925   9.435  0.00  0.00     0.223 A 
ATOM      8  C7  UNK A          46.270   3.975   8.724  0.00  0.00     0.085 A 
ATOM      9  C8  UNK A          45.777   1.924   6.889  0.00  0.00     0.075 A 
ATOM     10  C9  UNK A          47.058   2.464   7.007  0.00  0.00     0.071 A 
ATOM     11  C11 UNK A          47.303   3.487   7.923  0.00  0.00     0.074 A 
ENDROOT
BRANCH   5  12
ATOM     12  C4  UNK A          41.185   1.612   8.028  0.00  0.00     0.004 A 
ATOM     13  C10 UNK A          40.949   0.351   8.576  0.00  0.00     0.053 A 
ATOM     14  C13 UNK A          39.747  -0.307   8.320  0.00  0.00     0.099 A 
ATOM     15  C15 UNK A          38.781   0.294   7.513  0.00  0.00     0.098 A 
ATOM     16  C14 UNK A          39.016   1.554   6.964  0.00  0.00     0.040 A 
ATOM     17  C12 UNK A          40.218   2.213   7.221  0.00  0.00     0.017 A 
BRANCH  14  18
ATOM     18  O6  UNK A          39.528  -1.538   8.860  0.00  0.00    -0.358 OA
ATOM     19  H9  UNK A          39.326  -2.175   8.155  0.00  0.00     0.217 HD
ENDBRANCH  14  18
BRANCH  15  20
ATOM     20  O7  UNK A          37.602  -0.339   7.256  0.00  0.00    -0.358 OA
ATOM     21  H10 UNK A          37.657  -1.263   7.546  0.00  0.00     0.217 HD
ENDBRANCH  15  20
ENDBRANCH   5  12
BRANCH   6  22
ATOM     22  O2  UNK A          41.503   3.704   9.998  0.00  0.00    -0.355 OA
ATOM     23  H6  UNK A          40.696   3.229   9.741  0.00  0.00     0.218 HD
ENDBRANCH   6  22
BRANCH   8  24
ATOM     24  O3  UNK A          46.565   4.974   9.602  0.00  0.00    -0.360 OA
ATOM     25  H7  UNK A          46.384   4.692  10.512  0.00  0.00     0.217 HD
ENDBRANCH   8  24
BRANCH  10  26
ATOM     26  O5  UNK A          48.068   1.991   6.229  0.00  0.00    -0.361 OA
ATOM     27  H8  UNK A          48.407   1.166   6.617  0.00  0.00     0.217 HD
ENDBRANCH  10  26
TORSDOF 6
ENDMDL
MODEL 13
REMARK VINA RESULT:      -6.3     15.372     17.329
REMARK  6 active torsions:
REMARK  status: ('A' for Active; 'I' for Inactive)
REMARK    1  A    between atoms: O2_2  and  C5_12 
REMARK    2  A    between atoms: O3_3  and  C7_14 
REMARK    3  A    between atoms: O5_5  and  C9_16 
REMARK    4  A    between atoms: O6_6  and  C13_20 
REMARK    5  A    between atoms: O7_7  and  C15_22 
REMARK    6  A    between atoms: C3_10  and  C4_11 
ROOT
ATOM      1  O1  UNK A          44.215   1.638   7.540  0.00  0.00    -0.306 OA
ATOM      2  O4  UNK A          45.743   0.785  11.220  0.00  0.00    -0.284 OA
ATOM      3  C1  UNK A          46.141   1.508   9.011  0.00  0.00     0.084 A 
ATOM      4  C2  UNK A          45.557   1.782   7.775  0.00  0.00     0.096 A 
ATOM      5  C3  UNK A          43.402   1.215   8.580  0.00  0.00     0.123 A 
ATOM      6  C5  UNK A          43.840   0.910   9.815  0.00  0.00     0.152 A 
ATOM      7  C6  UNK A          45.286   1.046  10.115  0.00  0.00     0.223 A 
ATOM      8  C7  UNK A          47.516   1.672   9.192  0.00  0.00     0.085 A 
ATOM      9  C8  UNK A          46.347   2.220   6.712  0.00  0.00     0.075 A 
ATOM     10  C9  UNK A          47.721   2.385   6.889  0.00  0.00     0.071 A 
ATOM     11  C11 UNK A          48.304   2.111   8.128  0.00  0.00     0.074 A 
ENDROOT
BRANCH   5  12
ATOM     12  C4  UNK A          41.984   1.103   8.193  0.00  0.00     0.004 A 
ATOM     13  C10 UNK A          41.327  -0.123   8.295  0.00  0.00     0.053 A 
ATOM     14  C13 UNK A          39.985  -0.228   7.931  0.00  0.00     0.099 A 
ATOM     15  C15 UNK A          39.300   0.894   7.461  0.00  0.00     0.098 A 
ATOM     16  C14 UNK A          39.957   2.120   7.359  0.00  0.00     0.040 A 
ATOM     17  C12 UNK A          41.299   2.225   7.725  0.00  0.00     0.017 A 
BRANCH  14  18
ATOM     18  O6  UNK A          39.354  -1.430   8.033  0.00  0.00    -0.358 OA
ATOM     19  H9  UNK A          39.974  -2.099   8.366  0.00  0.00     0.217 HD
ENDBRANCH  14  18
BRANCH  15  20
ATOM     20  O7  UNK A          37.989   0.804   7.103  0.00  0.00    -0.358 OA
ATOM     21  H10 UNK A          37.446   0.628   7.888  0.00  0.00     0.217 HD
ENDBRANCH  15  20
ENDBRANCH   5  12
BRANCH   6  22
ATOM     22  O2  UNK A          43.010   0.460  10.818  0.00  0.00    -0.355 OA
ATOM     23  H6  UNK A          43.532   0.008  11.501  0.00  0.00     0.218 HD
ENDBRANCH   6  22
BRANCH   8  24
ATOM     24  O3  UNK A          48.136   1.418  10.379  0.00  0.00    -0.360 OA
ATOM     25  H7  UNK A          47.963   0.509  10.666  0.00  0.00     0.217 HD
ENDBRANCH   8  24
BRANCH  10  26
ATOM     26  O5  UNK A          48.493   2.812   5.854  0.00  0.00    -0.361 OA
ATOM     27  H8  UNK A          47.927   3.253   5.198  0.00  0.00     0.217 HD
ENDBRANCH  10  26
TORSDOF 6
ENDMDL
MODEL 14
REMARK VINA RESULT:      -6.3     12.811     15.887
REMARK  6 active torsions:
REMARK  status: ('A' for Active; 'I' for Inactive)
REMARK    1  A    between atoms: O2_2  and  C5_12 
REMARK    2  A    between atoms: O3_3  and  C7_14 
REMARK    3  A    between atoms: O5_5  and  C9_16 
REMARK    4  A    between atoms: O6_6  and  C13_20 
REMARK    5  A    between atoms: O7_7  and  C15_22 
REMARK    6  A    between atoms: C3_10  and  C4_11 
ROOT
ATOM      1  O1  UNK A          38.861  22.094  11.041  0.00  0.00    -0.306 OA
ATOM      2  O4  UNK A          37.711  19.644  14.088  0.00  0.00    -0.284 OA
ATOM      3  C1  UNK A          39.289  20.133  12.405  0.00  0.00     0.084 A 
ATOM      4  C2  UNK A          39.627  21.007  11.374  0.00  0.00     0.096 A 
ATOM      5  C3  UNK A          37.709  22.340  11.771  0.00  0.00     0.123 A 
ATOM      6  C5  UNK A          37.268  21.570  12.783  0.00  0.00     0.152 A 
ATOM      7  C6  UNK A          38.061  20.381  13.175  0.00  0.00     0.223 A 
ATOM      8  C7  UNK A          40.108  19.039  12.698  0.00  0.00     0.085 A 
ATOM      9  C8  UNK A          40.786  20.791  10.627  0.00  0.00     0.075 A 
ATOM     10  C9  UNK A          41.606  19.701  10.917  0.00  0.00     0.071 A 
ATOM     11  C11 UNK A          41.267  18.827  11.951  0.00  0.00     0.074 A 
ENDROOT
BRANCH   5  12
ATOM     12  C4  UNK A          36.981  23.536  11.311  0.00  0.00     0.004 A 
ATOM     13  C10 UNK A          37.289  24.789  11.842  0.00  0.00     0.053 A 
ATOM     14  C13 UNK A          36.602  25.921  11.406  0.00  0.00     0.099 A 
ATOM     15  C15 UNK A          35.603  25.800  10.439  0.00  0.00     0.098 A 
ATOM     16  C14 UNK A          35.294  24.548   9.908  0.00  0.00     0.040 A 
ATOM     17  C12 UNK A          35.983  23.416  10.344  0.00  0.00     0.017 A 
BRANCH  14  18
ATOM     18  O6  UNK A          36.911  27.138  11.933  0.00  0.00    -0.358 OA
ATOM     19  H9  UNK A          36.984  27.795  11.221  0.00  0.00     0.217 HD
ENDBRANCH  14  18
BRANCH  15  20
ATOM     20  O7  UNK A          34.925  26.899  10.004  0.00  0.00    -0.358 OA
ATOM     21  H10 UNK A          34.207  27.107  10.622  0.00  0.00     0.217 HD
ENDBRANCH  15  20
ENDBRANCH   5  12
BRANCH   6  22
ATOM     22  O2  UNK A          36.099  21.825  13.468  0.00  0.00    -0.355 OA
ATOM     23  H6  UNK A          35.787  22.722  13.266  0.00  0.00     0.218 HD
ENDBRANCH   6  22
BRANCH   8  24
ATOM     24  O3  UNK A          39.824  18.155  13.695  0.00  0.00    -0.360 OA
ATOM     25  H7  UNK A          39.356  17.383  13.343  0.00  0.00     0.217 HD
ENDBRANCH   8  24
BRANCH  10  26
ATOM     26  O5  UNK A          42.737  19.489  10.191  0.00  0.00    -0.361 OA
ATOM     27  H8  UNK A          43.412  19.090  10.767  0.00  0.00     0.217 HD
ENDBRANCH  10  26
TORSDOF 6
ENDMDL
MODEL 15
REMARK VINA RESULT:      -6.3     10.371     11.994
REMARK  6 active torsions:
REMARK  status: ('A' for Active; 'I' for Inactive)
REMARK    1  A    between atoms: O2_2  and  C5_12 
REMARK    2  A    between atoms: O3_3  and  C7_14 
REMARK    3  A    between atoms: O5_5  and  C9_16 
REMARK    4  A    between atoms: O6_6  and  C13_20 
REMARK    5  A    between atoms: O7_7  and  C15_22 
REMARK    6  A    between atoms: C3_10  and  C4_11 
ROOT
ATOM      1  O1  UNK A          46.367  11.222  -7.899  0.00  0.00    -0.306 OA
ATOM      2  O4  UNK A          47.941   7.639  -9.037  0.00  0.00    -0.284 OA
ATOM      3  C1  UNK A          46.073   9.079  -8.998  0.00  0.00     0.084 A 
ATOM      4  C2  UNK A          45.595  10.319  -8.581  0.00  0.00     0.096 A 
ATOM      5  C3  UNK A          47.686  10.892  -7.626  0.00  0.00     0.123 A 
ATOM      6  C5  UNK A          48.266   9.727  -7.966  0.00  0.00     0.152 A 
ATOM      7  C6  UNK A          47.467   8.717  -8.700  0.00  0.00     0.223 A 
ATOM      8  C7  UNK A          45.238   8.197  -9.689  0.00  0.00     0.085 A 
ATOM      9  C8  UNK A          44.275  10.684  -8.850  0.00  0.00     0.075 A 
ATOM     10  C9  UNK A          43.438   9.807  -9.539  0.00  0.00     0.071 A 
ATOM     11  C11 UNK A          43.920   8.565  -9.958  0.00  0.00     0.074 A 
ENDROOT
BRANCH   5  12
ATOM     12  C4  UNK A          48.403  11.949  -6.890  0.00  0.00     0.004 A 
ATOM     13  C10 UNK A          48.314  12.016  -5.500  0.00  0.00     0.053 A 
ATOM     14  C13 UNK A          48.994  13.014  -4.804  0.00  0.00     0.099 A 
ATOM     15  C15 UNK A          49.762  13.949  -5.500  0.00  0.00     0.098 A 
ATOM     16  C14 UNK A          49.851  13.883  -6.890  0.00  0.00     0.040 A 
ATOM     17  C12 UNK A          49.171  12.883  -7.586  0.00  0.00     0.017 A 
BRANCH  14  18
ATOM     18  O6  UNK A          48.899  13.070  -3.447  0.00  0.00    -0.358 OA
ATOM     19  H9  UNK A          48.575  12.221  -3.105  0.00  0.00     0.217 HD
ENDBRANCH  14  18
BRANCH  15  20
ATOM     20  O7  UNK A          50.432  14.929  -4.831  0.00  0.00    -0.358 OA
ATOM     21  H10 UNK A          51.388  14.792  -4.920  0.00  0.00     0.217 HD
ENDBRANCH  15  20
ENDBRANCH   5  12
BRANCH   6  22
ATOM     22  O2  UNK A          49.571   9.416  -7.650  0.00  0.00    -0.355 OA
ATOM     23  H6  UNK A          49.737   9.600  -6.711  0.00  0.00     0.218 HD
ENDBRANCH   6  22
BRANCH   8  24
ATOM     24  O3  UNK A          45.656   6.974 -10.120  0.00  0.00    -0.360 OA
ATOM     25  H7  UNK A          45.698   6.949 -11.087  0.00  0.00     0.217 HD
ENDBRANCH   8  24
BRANCH  10  26
ATOM     26  O5  UNK A          42.152  10.161  -9.803  0.00  0.00    -0.361 OA
ATOM     27  H8  UNK A          42.093  11.131  -9.844  0.00  0.00     0.217 HD
ENDBRANCH  10  26
TORSDOF 6
ENDMDL
MODEL 16
REMARK VINA RESULT:      -6.3     21.789     25.938
REMARK  6 active torsions:
REMARK  status: ('A' for Active; 'I' for Inactive)
REMARK    1  A    between atoms: O2_2  and  C5_12 
REMARK    2  A    between atoms: O3_3  and  C7_14 
REMARK    3  A    between atoms: O5_5  and  C9_16 
REMARK    4  A    between atoms: O6_6  and  C13_20 
REMARK    5  A    between atoms: O7_7  and  C15_22 
REMARK    6  A    between atoms: C3_10  and  C4_11 
ROOT
ATOM      1  O1  UNK A          38.826  -9.946   4.856  0.00  0.00    -0.306 OA
ATOM      2  O4  UNK A          36.287 -10.704   1.760  0.00  0.00    -0.284 OA
ATOM      3  C1  UNK A          37.283  -9.107   3.181  0.00  0.00     0.084 A 
ATOM      4  C2  UNK A          38.163  -8.914   4.244  0.00  0.00     0.096 A 
ATOM      5  C3  UNK A          38.622 -11.234   4.388  0.00  0.00     0.123 A 
ATOM      6  C5  UNK A          37.795 -11.556   3.376  0.00  0.00     0.152 A 
ATOM      7  C6  UNK A          37.052 -10.473   2.688  0.00  0.00     0.223 A 
ATOM      8  C7  UNK A          36.634  -8.017   2.597  0.00  0.00     0.085 A 
ATOM      9  C8  UNK A          38.397  -7.628   4.732  0.00  0.00     0.075 A 
ATOM     10  C9  UNK A          37.751  -6.537   4.151  0.00  0.00     0.071 A 
ATOM     11  C11 UNK A          36.870  -6.732   3.086  0.00  0.00     0.074 A 
ENDROOT
BRANCH   5  12
ATOM     12  C4  UNK A          39.394 -12.246   5.131  0.00  0.00     0.004 A 
ATOM     13  C10 UNK A          39.466 -12.186   6.523  0.00  0.00     0.053 A 
ATOM     14  C13 UNK A          40.195 -13.144   7.226  0.00  0.00     0.099 A 
ATOM     15  C15 UNK A          40.854 -14.162   6.537  0.00  0.00     0.098 A 
ATOM     16  C14 UNK A          40.782 -14.223   5.146  0.00  0.00     0.040 A 
ATOM     17  C12 UNK A          40.052 -13.265   4.442  0.00  0.00     0.017 A 
BRANCH  14  18
ATOM     18  O6  UNK A          40.260 -13.074   8.585  0.00  0.00    -0.358 OA
ATOM     19  H9  UNK A          40.620 -12.213   8.852  0.00  0.00     0.217 HD
ENDBRANCH  14  18
BRANCH  15  20
ATOM     20  O7  UNK A          41.569 -15.105   7.214  0.00  0.00    -0.358 OA
ATOM     21  H10 UNK A          42.142 -14.675   7.867  0.00  0.00     0.217 HD
ENDBRANCH  15  20
ENDBRANCH   5  12
BRANCH   6  22
ATOM     22  O2  UNK A          37.589 -12.852   2.955  0.00  0.00    -0.355 OA
ATOM     23  H6  UNK A          36.661 -13.101   3.095  0.00  0.00     0.218 HD
ENDBRANCH   6  22
BRANCH   8  24
ATOM     24  O3  UNK A          35.765  -8.150   1.556  0.00  0.00    -0.360 OA
ATOM     25  H7  UNK A          35.060  -7.488   1.614  0.00  0.00     0.217 HD
ENDBRANCH   8  24
BRANCH  10  26
ATOM     26  O5  UNK A          37.978  -5.282   4.625  0.00  0.00    -0.361 OA
ATOM     27  H8  UNK A          37.237  -5.022   5.199  0.00  0.00     0.217 HD
ENDBRANCH  10  26
TORSDOF 6
ENDMDL
MODEL 17
REMARK VINA RESULT:      -6.3     22.188     23.087
REMARK  6 active torsions:
REMARK  status: ('A' for Active; 'I' for Inactive)
REMARK    1  A    between atoms: O2_2  and  C5_12 
REMARK    2  A    between atoms: O3_3  and  C7_14 
REMARK    3  A    between atoms: O5_5  and  C9_16 
REMARK    4  A    between atoms: O6_6  and  C13_20 
REMARK    5  A    between atoms: O7_7  and  C15_22 
REMARK    6  A    between atoms: C3_10  and  C4_11 
ROOT
ATOM      1  O1  UNK A          38.408  -6.626  -7.119  0.00  0.00    -0.306 OA
ATOM      2  O4  UNK A          36.583  -7.577  -3.601  0.00  0.00    -0.284 OA
ATOM      3  C1  UNK A          36.360  -6.861  -5.837  0.00  0.00     0.084 A 
ATOM      4  C2  UNK A          37.044  -6.549  -7.011  0.00  0.00     0.096 A 
ATOM      5  C3  UNK A          39.136  -7.046  -6.017  0.00  0.00     0.123 A 
ATOM      6  C5  UNK A          38.600  -7.369  -4.826  0.00  0.00     0.152 A 
ATOM      7  C6  UNK A          37.128  -7.295  -4.660  0.00  0.00     0.223 A 
ATOM      8  C7  UNK A          34.968  -6.762  -5.785  0.00  0.00     0.085 A 
ATOM      9  C8  UNK A          36.337  -6.132  -8.140  0.00  0.00     0.075 A 
ATOM     10  C9  UNK A          34.947  -6.032  -8.092  0.00  0.00     0.071 A 
ATOM     11  C11 UNK A          34.264  -6.347  -6.915  0.00  0.00     0.074 A 
ENDROOT
BRANCH   5  12
ATOM     12  C4  UNK A          40.588  -7.085  -6.268  0.00  0.00     0.004 A 
ATOM     13  C10 UNK A          41.093  -7.830  -7.335  0.00  0.00     0.053 A 
ATOM     14  C13 UNK A          42.466  -7.866  -7.573  0.00  0.00     0.099 A 
ATOM     15  C15 UNK A          43.336  -7.158  -6.743  0.00  0.00     0.098 A 
ATOM     16  C14 UNK A          42.832  -6.413  -5.677  0.00  0.00     0.040 A 
ATOM     17  C12 UNK A          41.458  -6.377  -5.439  0.00  0.00     0.017 A 
BRANCH  14  18
ATOM     18  O6  UNK A          42.947  -8.597  -8.616  0.00  0.00    -0.358 OA
ATOM     19  H9  UNK A          43.695  -8.133  -9.025  0.00  0.00     0.217 HD
ENDBRANCH  14  18
BRANCH  15  20
ATOM     20  O7  UNK A          44.680  -7.184  -6.966  0.00  0.00    -0.358 OA
ATOM     21  H10 UNK A          45.052  -8.013  -6.627  0.00  0.00     0.217 HD
ENDBRANCH  15  20
ENDBRANCH   5  12
BRANCH   6  22
ATOM     22  O2  UNK A          39.356  -7.752  -3.739  0.00  0.00    -0.355 OA
ATOM     23  H6  UNK A          38.990  -7.362  -2.929  0.00  0.00     0.218 HD
ENDBRANCH   6  22
BRANCH   8  24
ATOM     24  O3  UNK A          34.252  -7.056  -4.663  0.00  0.00    -0.360 OA
ATOM     25  H7  UNK A          33.318  -6.829  -4.787  0.00  0.00     0.217 HD
ENDBRANCH   8  24
BRANCH  10  26
ATOM     26  O5  UNK A          34.256  -5.627  -9.191  0.00  0.00    -0.361 OA
ATOM     27  H8  UNK A          34.035  -6.406  -9.730  0.00  0.00     0.217 HD
ENDBRANCH  10  26
TORSDOF 6
ENDMDL
MODEL 18
REMARK VINA RESULT:      -6.3     15.571     17.926
REMARK  6 active torsions:
REMARK  status: ('A' for Active; 'I' for Inactive)
REMARK    1  A    between atoms: O2_2  and  C5_12 
REMARK    2  A    between atoms: O3_3  and  C7_14 
REMARK    3  A    between atoms: O5_5  and  C9_16 
REMARK    4  A    between atoms: O6_6  and  C13_20 
REMARK    5  A    between atoms: O7_7  and  C15_22 
REMARK    6  A    between atoms: C3_10  and  C4_11 
ROOT
ATOM      1  O1  UNK A          43.940  -0.057   9.157  0.00  0.00    -0.306 OA
ATOM      2  O4  UNK A          40.961   2.078   7.375  0.00  0.00    -0.284 OA
ATOM      3  C1  UNK A          41.581   0.186   8.639  0.00  0.00     0.084 A 
ATOM      4  C2  UNK A          42.644  -0.498   9.226  0.00  0.00     0.096 A 
ATOM      5  C3  UNK A          44.201   1.127   8.487  0.00  0.00     0.123 A 
ATOM      6  C5  UNK A          43.269   1.878   7.872  0.00  0.00     0.152 A 
ATOM      7  C6  UNK A          41.854   1.437   7.915  0.00  0.00     0.223 A 
ATOM      8  C7  UNK A          40.280  -0.312   8.741  0.00  0.00     0.085 A 
ATOM      9  C8  UNK A          42.411  -1.688   9.916  0.00  0.00     0.075 A 
ATOM     10  C9  UNK A          41.113  -2.189  10.020  0.00  0.00     0.071 A 
ATOM     11  C11 UNK A          40.050  -1.501   9.432  0.00  0.00     0.074 A 
ENDROOT
BRANCH   5  12
ATOM     12  C4  UNK A          45.630   1.486   8.489  0.00  0.00     0.004 A 
ATOM     13  C10 UNK A          46.293   1.722   7.284  0.00  0.00     0.053 A 
ATOM     14  C13 UNK A          47.645   2.063   7.286  0.00  0.00     0.099 A 
ATOM     15  C15 UNK A          48.336   2.166   8.494  0.00  0.00     0.098 A 
ATOM     16  C14 UNK A          47.674   1.930   9.699  0.00  0.00     0.040 A 
ATOM     17  C12 UNK A          46.321   1.590   9.697  0.00  0.00     0.017 A 
BRANCH  14  18
ATOM     18  O6  UNK A          48.282   2.289   6.104  0.00  0.00    -0.358 OA
ATOM     19  H9  UNK A          49.072   1.727   6.043  0.00  0.00     0.217 HD
ENDBRANCH  14  18
BRANCH  15  20
ATOM     20  O7  UNK A          49.657   2.500   8.509  0.00  0.00    -0.358 OA
ATOM     21  H10 UNK A          49.859   3.073   7.753  0.00  0.00     0.217 HD
ENDBRANCH  15  20
ENDBRANCH   5  12
BRANCH   6  22
ATOM     22  O2  UNK A          43.566   3.034   7.185  0.00  0.00    -0.355 OA
ATOM     23  H6  UNK A          42.747   3.462   6.887  0.00  0.00     0.218 HD
ENDBRANCH   6  22
BRANCH   8  24
ATOM     24  O3  UNK A          39.207   0.318   8.186  0.00  0.00    -0.360 OA
ATOM     25  H7  UNK A          38.678   0.756   8.870  0.00  0.00     0.217 HD
ENDBRANCH   8  24
BRANCH  10  26
ATOM     26  O5  UNK A          40.884  -3.348  10.693  0.00  0.00    -0.361 OA
ATOM     27  H8  UNK A          41.644  -3.943  10.567  0.00  0.00     0.217 HD
ENDBRANCH  10  26
TORSDOF 6
ENDMDL
MODEL 19
REMARK VINA RESULT:      -6.2     15.891     18.495
REMARK  6 active torsions:
REMARK  status: ('A' for Active; 'I' for Inactive)
REMARK    1  A    between atoms: O2_2  and  C5_12 
REMARK    2  A    between atoms: O3_3  and  C7_14 
REMARK    3  A    between atoms: O5_5  and  C9_16 
REMARK    4  A    between atoms: O6_6  and  C13_20 
REMARK    5  A    between atoms: O7_7  and  C15_22 
REMARK    6  A    between atoms: C3_10  and  C4_11 
ROOT
ATOM      1  O1  UNK A          40.822  -1.431   8.577  0.00  0.00    -0.306 OA
ATOM      2  O4  UNK A          39.209   2.274   8.050  0.00  0.00    -0.284 OA
ATOM      3  C1  UNK A          41.061   0.979   8.725  0.00  0.00     0.084 A 
ATOM      4  C2  UNK A          41.554  -0.314   8.883  0.00  0.00     0.096 A 
ATOM      5  C3  UNK A          39.541  -1.266   8.075  0.00  0.00     0.123 A 
ATOM      6  C5  UNK A          38.945  -0.074   7.882  0.00  0.00     0.152 A 
ATOM      7  C6  UNK A          39.697   1.162   8.205  0.00  0.00     0.223 A 
ATOM      8  C7  UNK A          41.853   2.082   9.055  0.00  0.00     0.085 A 
ATOM      9  C8  UNK A          42.844  -0.513   9.377  0.00  0.00     0.075 A 
ATOM     10  C9  UNK A          43.639   0.585   9.708  0.00  0.00     0.071 A 
ATOM     11  C11 UNK A          43.143   1.880   9.548  0.00  0.00     0.074 A 
ENDROOT
BRANCH   5  12
ATOM     12  C4  UNK A          38.866  -2.544   7.787  0.00  0.00     0.004 A 
ATOM     13  C10 UNK A          38.914  -3.086   6.503  0.00  0.00     0.053 A 
ATOM     14  C13 UNK A          38.276  -4.295   6.231  0.00  0.00     0.099 A 
ATOM     15  C15 UNK A          37.588  -4.964   7.245  0.00  0.00     0.098 A 
ATOM     16  C14 UNK A          37.540  -4.422   8.529  0.00  0.00     0.040 A 
ATOM     17  C12 UNK A          38.179  -3.212   8.801  0.00  0.00     0.017 A 
BRANCH  14  18
ATOM     18  O6  UNK A          38.329  -4.814   4.973  0.00  0.00    -0.358 OA
ATOM     19  H9  UNK A          38.995  -5.520   4.936  0.00  0.00     0.217 HD
ENDBRANCH  14  18
BRANCH  15  20
ATOM     20  O7  UNK A          36.963  -6.147   6.992  0.00  0.00    -0.358 OA
ATOM     21  H10 UNK A          37.183  -6.450   6.097  0.00  0.00     0.217 HD
ENDBRANCH  15  20
ENDBRANCH   5  12
BRANCH   6  22
ATOM     22  O2  UNK A          37.656   0.055   7.412  0.00  0.00    -0.355 OA
ATOM     23  H6  UNK A          37.511  -0.557   6.673  0.00  0.00     0.218 HD
ENDBRANCH   6  22
BRANCH   8  24
ATOM     24  O3  UNK A          41.419   3.366   8.919  0.00  0.00    -0.360 OA
ATOM     25  H7  UNK A          40.715   3.418   8.255  0.00  0.00     0.217 HD
ENDBRANCH   8  24
BRANCH  10  26
ATOM     26  O5  UNK A          44.896   0.393  10.189  0.00  0.00    -0.361 OA
ATOM     27  H8  UNK A          44.865   0.378  11.161  0.00  0.00     0.217 HD
ENDBRANCH  10  26
TORSDOF 6
ENDMDL
