MODEL 1
REMARK VINA RESULT:      -6.3      0.000      0.000
REMARK  6 active torsions:
REMARK  status: ('A' for Active; 'I' for Inactive)
REMARK    1  A    between atoms: O2_2  and  C5_12 
REMARK    2  A    between atoms: O3_3  and  C7_14 
REMARK    3  A    between atoms: O5_5  and  C9_16 
REMARK    4  A    between atoms: O6_6  and  C13_20 
REMARK    5  A    between atoms: O7_7  and  C15_22 
REMARK    6  A    between atoms: C3_10  and  C4_11 
ROOT
ATOM      1  O1  UNK A          43.230   2.007   7.859  0.00  0.00    -0.306 OA
ATOM      2  O4  UNK A          43.776   5.222  10.304  0.00  0.00    -0.284 OA
ATOM      3  C1  UNK A          44.725   3.669   8.803  0.00  0.00     0.084 A 
ATOM      4  C2  UNK A          44.473   2.570   7.986  0.00  0.00     0.096 A 
ATOM      5  C3  UNK A          42.176   2.565   8.566  0.00  0.00     0.123 A 
ATOM      6  C5  UNK A          42.287   3.621   9.394  0.00  0.00     0.152 A 
ATOM      7  C6  UNK A          43.614   4.259   9.566  0.00  0.00     0.223 A 
ATOM      8  C7  UNK A          46.014   4.200   8.894  0.00  0.00     0.085 A 
ATOM      9  C8  UNK A          45.511   1.991   7.254  0.00  0.00     0.075 A 
ATOM     10  C9  UNK A          46.800   2.518   7.342  0.00  0.00     0.071 A 
ATOM     11  C11 UNK A          47.050   3.621   8.161  0.00  0.00     0.074 A 
ENDROOT
BRANCH   5  12
ATOM     12  C4  UNK A          40.898   1.867   8.340  0.00  0.00     0.004 A 
ATOM     13  C10 UNK A          40.144   2.141   7.199  0.00  0.00     0.053 A 
ATOM     14  C13 UNK A          38.936   1.478   6.985  0.00  0.00     0.099 A 
ATOM     15  C15 UNK A          38.479   0.543   7.915  0.00  0.00     0.098 A 
ATOM     16  C14 UNK A          39.232   0.270   9.056  0.00  0.00     0.040 A 
ATOM     17  C12 UNK A          40.442   0.931   9.269  0.00  0.00     0.017 A 
BRANCH  14  18
ATOM     18  O6  UNK A          38.208   1.754   5.868  0.00  0.00    -0.358 OA
ATOM     19  H9  UNK A          38.796   1.802   5.096  0.00  0.00     0.217 HD
ENDBRANCH  14  18
BRANCH  15  20
ATOM     20  O7  UNK A          37.301  -0.111   7.716  0.00  0.00    -0.358 OA
ATOM     21  H10 UNK A          36.806  -0.153   8.549  0.00  0.00     0.217 HD
ENDBRANCH  15  20
ENDBRANCH   5  12
BRANCH   6  22
ATOM     22  O2  UNK A          41.224   4.132  10.108  0.00  0.00    -0.355 OA
ATOM     23  H6  UNK A          41.226   5.101  10.052  0.00  0.00     0.218 HD
ENDBRANCH   6  22
BRANCH   8  24
ATOM     24  O3  UNK A          46.314   5.274   9.678  0.00  0.00    -0.360 OA
ATOM     25  H7  UNK A          47.266   5.311   9.854  0.00  0.00     0.217 HD
ENDBRANCH   8  24
BRANCH  10  26
ATOM     26  O5  UNK A          47.813   1.957   6.630  0.00  0.00    -0.361 OA
ATOM     27  H8  UNK A          48.662   2.225   7.021  0.00  0.00     0.217 HD
ENDBRANCH  10  26
TORSDOF 6
ENDMDL
MODEL 2
REMARK VINA RESULT:      -6.3      0.904      1.045
REMARK  6 active torsions:
REMARK  status: ('A' for Active; 'I' for Inactive)
REMARK    1  A    between atoms: O2_2  and  C5_12 
REMARK    2  A    between atoms: O3_3  and  C7_14 
REMARK    3  A    between atoms: O5_5  and  C9_16 
REMARK    4  A    between atoms: O6_6  and  C13_20 
REMARK    5  A    between atoms: O7_7  and  C15_22 
REMARK    6  A    between atoms: C3_10  and  C4_11 
ROOT
ATOM      1  O1  UNK A          43.089   2.597   8.383  0.00  0.00    -0.306 OA
ATOM      2  O4  UNK A          42.718   5.983  10.620  0.00  0.00    -0.284 OA
ATOM      3  C1  UNK A          44.132   4.529   9.417  0.00  0.00     0.084 A 
ATOM      4  C2  UNK A          44.193   3.361   8.660  0.00  0.00     0.096 A 
ATOM      5  C3  UNK A          41.858   3.012   8.867  0.00  0.00     0.123 A 
ATOM      6  C5  UNK A          41.665   4.114   9.616  0.00  0.00     0.152 A 
ATOM      7  C6  UNK A          42.832   4.969   9.944  0.00  0.00     0.223 A 
ATOM      8  C7  UNK A          45.292   5.267   9.668  0.00  0.00     0.085 A 
ATOM      9  C8  UNK A          45.415   2.922   8.150  0.00  0.00     0.075 A 
ATOM     10  C9  UNK A          46.575   3.656   8.399  0.00  0.00     0.071 A 
ATOM     11  C11 UNK A          46.512   4.826   9.157  0.00  0.00     0.074 A 
ENDROOT
BRANCH   5  12
ATOM     12  C4  UNK A          40.758   2.104   8.498  0.00  0.00     0.004 A 
ATOM     13  C10 UNK A          40.020   2.335   7.337  0.00  0.00     0.053 A 
ATOM     14  C13 UNK A          38.981   1.474   6.988  0.00  0.00     0.099 A 
ATOM     15  C15 UNK A          38.677   0.382   7.801  0.00  0.00     0.098 A 
ATOM     16  C14 UNK A          39.414   0.150   8.962  0.00  0.00     0.040 A 
ATOM     17  C12 UNK A          40.455   1.011   9.311  0.00  0.00     0.017 A 
BRANCH  14  18
ATOM     18  O6  UNK A          38.266   1.711   5.853  0.00  0.00    -0.358 OA
ATOM     19  H9  UNK A          38.872   1.849   5.107  0.00  0.00     0.217 HD
ENDBRANCH  14  18
BRANCH  15  20
ATOM     20  O7  UNK A          37.664  -0.467   7.470  0.00  0.00    -0.358 OA
ATOM     21  H10 UNK A          36.829   0.024   7.415  0.00  0.00     0.217 HD
ENDBRANCH  15  20
ENDBRANCH   5  12
BRANCH   6  22
ATOM     22  O2  UNK A          40.433   4.482  10.109  0.00  0.00    -0.355 OA
ATOM     23  H6  UNK A          39.749   3.882   9.770  0.00  0.00     0.218 HD
ENDBRANCH   6  22
BRANCH   8  24
ATOM     24  O3  UNK A          45.287   6.415  10.402  0.00  0.00    -0.360 OA
ATOM     25  H7  UNK A          44.966   6.244  11.300  0.00  0.00     0.217 HD
ENDBRANCH   8  24
BRANCH  10  26
ATOM     26  O5  UNK A          47.768   3.230   7.903  0.00  0.00    -0.361 OA
ATOM     27  H8  UNK A          48.427   3.937   8.013  0.00  0.00     0.217 HD
ENDBRANCH  10  26
TORSDOF 6
ENDMDL
MODEL 3
REMARK VINA RESULT:      -6.1      1.212      3.018
REMARK  6 active torsions:
REMARK  status: ('A' for Active; 'I' for Inactive)
REMARK    1  A    between atoms: O2_2  and  C5_12 
REMARK    2  A    between atoms: O3_3  and  C7_14 
REMARK    3  A    between atoms: O5_5  and  C9_16 
REMARK    4  A    between atoms: O6_6  and  C13_20 
REMARK    5  A    between atoms: O7_7  and  C15_22 
REMARK    6  A    between atoms: C3_10  and  C4_11 
ROOT
ATOM      1  O1  UNK A          42.448   3.330   9.025  0.00  0.00    -0.306 OA
ATOM      2  O4  UNK A          46.035   2.278   7.401  0.00  0.00    -0.284 OA
ATOM      3  C1  UNK A          44.823   3.762   8.777  0.00  0.00     0.084 A 
ATOM      4  C2  UNK A          43.568   4.069   9.300  0.00  0.00     0.096 A 
ATOM      5  C3  UNK A          42.571   2.221   8.203  0.00  0.00     0.123 A 
ATOM      6  C5  UNK A          43.721   1.822   7.629  0.00  0.00     0.152 A 
ATOM      7  C6  UNK A          44.959   2.594   7.893  0.00  0.00     0.223 A 
ATOM      8  C7  UNK A          45.931   4.553   9.091  0.00  0.00     0.085 A 
ATOM      9  C8  UNK A          43.414   5.174  10.139  0.00  0.00     0.075 A 
ATOM     10  C9  UNK A          44.517   5.966  10.454  0.00  0.00     0.071 A 
ATOM     11  C11 UNK A          45.774   5.656   9.931  0.00  0.00     0.074 A 
ENDROOT
BRANCH   5  12
ATOM     12  C4  UNK A          41.295   1.517   7.990  0.00  0.00     0.004 A 
ATOM     13  C10 UNK A          40.356   2.028   7.093  0.00  0.00     0.053 A 
ATOM     14  C13 UNK A          39.149   1.360   6.891  0.00  0.00     0.099 A 
ATOM     15  C15 UNK A          38.878   0.182   7.588  0.00  0.00     0.098 A 
ATOM     16  C14 UNK A          39.816  -0.328   8.485  0.00  0.00     0.040 A 
ATOM     17  C12 UNK A          41.024   0.339   8.687  0.00  0.00     0.017 A 
BRANCH  14  18
ATOM     18  O6  UNK A          38.240   1.869   6.014  0.00  0.00    -0.358 OA
ATOM     19  H9  UNK A          37.373   1.457   6.164  0.00  0.00     0.217 HD
ENDBRANCH  14  18
BRANCH  15  20
ATOM     20  O7  UNK A          37.702  -0.479   7.399  0.00  0.00    -0.358 OA
ATOM     21  H10 UNK A          37.795  -1.401   7.686  0.00  0.00     0.217 HD
ENDBRANCH  15  20
ENDBRANCH   5  12
BRANCH   6  22
ATOM     22  O2  UNK A          43.805   0.732   6.789  0.00  0.00    -0.355 OA
ATOM     23  H6  UNK A          44.486   0.886   6.115  0.00  0.00     0.218 HD
ENDBRANCH   6  22
BRANCH   8  24
ATOM     24  O3  UNK A          47.179   4.296   8.607  0.00  0.00    -0.360 OA
ATOM     25  H7  UNK A          47.162   4.235   7.640  0.00  0.00     0.217 HD
ENDBRANCH   8  24
BRANCH  10  26
ATOM     26  O5  UNK A          44.369   7.043  11.272  0.00  0.00    -0.361 OA
ATOM     27  H8  UNK A          44.495   7.855  10.752  0.00  0.00     0.217 HD
ENDBRANCH  10  26
TORSDOF 6
ENDMDL
MODEL 4
REMARK VINA RESULT:      -6.1      3.081      5.160
REMARK  6 active torsions:
REMARK  status: ('A' for Active; 'I' for Inactive)
REMARK    1  A    between atoms: O2_2  and  C5_12 
REMARK    2  A    between atoms: O3_3  and  C7_14 
REMARK    3  A    between atoms: O5_5  and  C9_16 
REMARK    4  A    between atoms: O6_6  and  C13_20 
REMARK    5  A    between atoms: O7_7  and  C15_22 
REMARK    6  A    between atoms: C3_10  and  C4_11 
ROOT
ATOM      1  O1  UNK A          39.800   0.229   8.818  0.00  0.00    -0.306 OA
ATOM      2  O4  UNK A          43.643  -0.670   9.830  0.00  0.00    -0.284 OA
ATOM      3  C1  UNK A          41.973   0.978   9.596  0.00  0.00     0.084 A 
ATOM      4  C2  UNK A          40.649   1.220   9.235  0.00  0.00     0.096 A 
ATOM      5  C3  UNK A          40.275  -1.072   8.765  0.00  0.00     0.123 A 
ATOM      6  C5  UNK A          41.532  -1.437   9.079  0.00  0.00     0.152 A 
ATOM      7  C6  UNK A          42.488  -0.398   9.530  0.00  0.00     0.223 A 
ATOM      8  C7  UNK A          42.793   2.030  10.013  0.00  0.00     0.085 A 
ATOM      9  C8  UNK A          40.138   2.518   9.287  0.00  0.00     0.075 A 
ATOM     10  C9  UNK A          40.954   3.570   9.702  0.00  0.00     0.071 A 
ATOM     11  C11 UNK A          42.279   3.325  10.065  0.00  0.00     0.074 A 
ENDROOT
BRANCH   5  12
ATOM     12  C4  UNK A          39.263  -2.036   8.302  0.00  0.00     0.004 A 
ATOM     13  C10 UNK A          39.425  -2.686   7.078  0.00  0.00     0.053 A 
ATOM     14  C13 UNK A          38.467  -3.600   6.641  0.00  0.00     0.099 A 
ATOM     15  C15 UNK A          37.345  -3.864   7.427  0.00  0.00     0.098 A 
ATOM     16  C14 UNK A          37.182  -3.215   8.650  0.00  0.00     0.040 A 
ATOM     17  C12 UNK A          38.141  -2.301   9.088  0.00  0.00     0.017 A 
BRANCH  14  18
ATOM     18  O6  UNK A          38.635  -4.227   5.444  0.00  0.00    -0.358 OA
ATOM     19  H9  UNK A          39.364  -4.866   5.507  0.00  0.00     0.217 HD
ENDBRANCH  14  18
BRANCH  15  20
ATOM     20  O7  UNK A          36.402  -4.756   7.011  0.00  0.00    -0.358 OA
ATOM     21  H10 UNK A          36.835  -5.524   6.606  0.00  0.00     0.217 HD
ENDBRANCH  15  20
ENDBRANCH   5  12
BRANCH   6  22
ATOM     22  O2  UNK A          41.984  -2.736   8.985  0.00  0.00    -0.355 OA
ATOM     23  H6  UNK A          42.909  -2.785   9.275  0.00  0.00     0.218 HD
ENDBRANCH   6  22
BRANCH   8  24
ATOM     24  O3  UNK A          44.094   1.847  10.377  0.00  0.00    -0.360 OA
ATOM     25  H7  UNK A          44.344   2.474  11.071  0.00  0.00     0.217 HD
ENDBRANCH   8  24
BRANCH  10  26
ATOM     26  O5  UNK A          40.457   4.835   9.754  0.00  0.00    -0.361 OA
ATOM     27  H8  UNK A          40.971   5.350  10.400  0.00  0.00     0.217 HD
ENDBRANCH  10  26
TORSDOF 6
ENDMDL
MODEL 5
REMARK VINA RESULT:      -5.9      3.389      4.211
REMARK  6 active torsions:
REMARK  status: ('A' for Active; 'I' for Inactive)
REMARK    1  A    between atoms: O2_2  and  C5_12 
REMARK    2  A    between atoms: O3_3  and  C7_14 
REMARK    3  A    between atoms: O5_5  and  C9_16 
REMARK    4  A    between atoms: O6_6  and  C13_20 
REMARK    5  A    between atoms: O7_7  and  C15_22 
REMARK    6  A    between atoms: C3_10  and  C4_11 
ROOT
ATOM      1  O1  UNK A          45.249   0.188   9.933  0.00  0.00    -0.306 OA
ATOM      2  O4  UNK A          44.420   2.238   6.510  0.00  0.00    -0.284 OA
ATOM      3  C1  UNK A          46.033   1.558   8.089  0.00  0.00     0.084 A 
ATOM      4  C2  UNK A          46.251   0.841   9.264  0.00  0.00     0.096 A 
ATOM      5  C3  UNK A          43.966   0.232   9.409  0.00  0.00     0.123 A 
ATOM      6  C5  UNK A          43.622   0.894   8.289  0.00  0.00     0.152 A 
ATOM      7  C6  UNK A          44.672   1.620   7.536  0.00  0.00     0.223 A 
ATOM      8  C7  UNK A          47.094   2.206   7.452  0.00  0.00     0.085 A 
ATOM      9  C8  UNK A          47.533   0.770   9.811  0.00  0.00     0.075 A 
ATOM     10  C9  UNK A          48.595   1.415   9.177  0.00  0.00     0.071 A 
ATOM     11  C11 UNK A          48.375   2.132   8.000  0.00  0.00     0.074 A 
ENDROOT
BRANCH   5  12
ATOM     12  C4  UNK A          42.987  -0.510  10.223  0.00  0.00     0.004 A 
ATOM     13  C10 UNK A          42.622  -1.808   9.866  0.00  0.00     0.053 A 
ATOM     14  C13 UNK A          41.696  -2.510  10.637  0.00  0.00     0.099 A 
ATOM     15  C15 UNK A          41.133  -1.913  11.765  0.00  0.00     0.098 A 
ATOM     16  C14 UNK A          41.497  -0.615  12.123  0.00  0.00     0.040 A 
ATOM     17  C12 UNK A          42.424   0.087  11.352  0.00  0.00     0.017 A 
BRANCH  14  18
ATOM     18  O6  UNK A          41.347  -3.776  10.277  0.00  0.00    -0.358 OA
ATOM     19  H9  UNK A          40.880  -3.759   9.426  0.00  0.00     0.217 HD
ENDBRANCH  14  18
BRANCH  15  20
ATOM     20  O7  UNK A          40.229  -2.590  12.527  0.00  0.00    -0.358 OA
ATOM     21  H10 UNK A          39.364  -2.590  12.087  0.00  0.00     0.217 HD
ENDBRANCH  15  20
ENDBRANCH   5  12
BRANCH   6  22
ATOM     22  O2  UNK A          42.330   0.945   7.813  0.00  0.00    -0.355 OA
ATOM     23  H6  UNK A          42.218   0.304   7.092  0.00  0.00     0.218 HD
ENDBRANCH   6  22
BRANCH   8  24
ATOM     24  O3  UNK A          46.935   2.919   6.302  0.00  0.00    -0.360 OA
ATOM     25  H7  UNK A          47.644   2.713   5.673  0.00  0.00     0.217 HD
ENDBRANCH   8  24
BRANCH  10  26
ATOM     26  O5  UNK A          49.846   1.346   9.707  0.00  0.00    -0.361 OA
ATOM     27  H8  UNK A          50.112   0.413   9.771  0.00  0.00     0.217 HD
ENDBRANCH  10  26
TORSDOF 6
ENDMDL
MODEL 6
REMARK VINA RESULT:      -5.9      2.173      2.561
REMARK  6 active torsions:
REMARK  status: ('A' for Active; 'I' for Inactive)
REMARK    1  A    between atoms: O2_2  and  C5_12 
REMARK    2  A    between atoms: O3_3  and  C7_14 
REMARK    3  A    between atoms: O5_5  and  C9_16 
REMARK    4  A    between atoms: O6_6  and  C13_20 
REMARK    5  A    between atoms: O7_7  and  C15_22 
REMARK    6  A    between atoms: C3_10  and  C4_11 
ROOT
ATOM      1  O1  UNK A          44.046   1.512   7.632  0.00  0.00    -0.306 OA
ATOM      2  O4  UNK A          45.412   0.978  11.435  0.00  0.00    -0.284 OA
ATOM      3  C1  UNK A          45.910   1.487   9.186  0.00  0.00     0.084 A 
ATOM      4  C2  UNK A          45.380   1.655   7.908  0.00  0.00     0.096 A 
ATOM      5  C3  UNK A          43.184   1.200   8.673  0.00  0.00     0.123 A 
ATOM      6  C5  UNK A          43.568   1.004   9.948  0.00  0.00     0.152 A 
ATOM      7  C6  UNK A          45.003   1.143  10.292  0.00  0.00     0.223 A 
ATOM      8  C7  UNK A          47.280   1.644   9.408  0.00  0.00     0.085 A 
ATOM      9  C8  UNK A          46.220   1.979   6.842  0.00  0.00     0.075 A 
ATOM     10  C9  UNK A          47.589   2.137   7.059  0.00  0.00     0.071 A 
ATOM     11  C11 UNK A          48.117   1.969   8.340  0.00  0.00     0.074 A 
ENDROOT
BRANCH   5  12
ATOM     12  C4  UNK A          41.781   1.077   8.241  0.00  0.00     0.004 A 
ATOM     13  C10 UNK A          41.140  -0.161   8.293  0.00  0.00     0.053 A 
ATOM     14  C13 UNK A          39.812  -0.277   7.886  0.00  0.00     0.099 A 
ATOM     15  C15 UNK A          39.124   0.845   7.423  0.00  0.00     0.098 A 
ATOM     16  C14 UNK A          39.764   2.083   7.370  0.00  0.00     0.040 A 
ATOM     17  C12 UNK A          41.093   2.199   7.778  0.00  0.00     0.017 A 
BRANCH  14  18
ATOM     18  O6  UNK A          39.197  -1.491   7.941  0.00  0.00    -0.358 OA
ATOM     19  H9  UNK A          38.708  -1.574   8.775  0.00  0.00     0.217 HD
ENDBRANCH  14  18
BRANCH  15  20
ATOM     20  O7  UNK A          37.825   0.744   7.023  0.00  0.00    -0.358 OA
ATOM     21  H10 UNK A          37.600   1.493   6.450  0.00  0.00     0.217 HD
ENDBRANCH  15  20
ENDBRANCH   5  12
BRANCH   6  22
ATOM     22  O2  UNK A          42.690   0.663  10.954  0.00  0.00    -0.355 OA
ATOM     23  H6  UNK A          43.106   0.018  11.550  0.00  0.00     0.218 HD
ENDBRANCH   6  22
BRANCH   8  24
ATOM     24  O3  UNK A          47.848   1.491  10.637  0.00  0.00    -0.360 OA
ATOM     25  H7  UNK A          48.814   1.543  10.574  0.00  0.00     0.217 HD
ENDBRANCH   8  24
BRANCH  10  26
ATOM     26  O5  UNK A          48.410   2.453   6.022  0.00  0.00    -0.361 OA
ATOM     27  H8  UNK A          48.421   3.419   5.911  0.00  0.00     0.217 HD
ENDBRANCH  10  26
TORSDOF 6
ENDMDL
MODEL 7
REMARK VINA RESULT:      -5.8      7.426     10.866
REMARK  6 active torsions:
REMARK  status: ('A' for Active; 'I' for Inactive)
REMARK    1  A    between atoms: O2_2  and  C5_12 
REMARK    2  A    between atoms: O3_3  and  C7_14 
REMARK    3  A    between atoms: O5_5  and  C9_16 
REMARK    4  A    between atoms: O6_6  and  C13_20 
REMARK    5  A    between atoms: O7_7  and  C15_22 
REMARK    6  A    between atoms: C3_10  and  C4_11 
ROOT
ATOM      1  O1  UNK A          37.929  -5.021   5.599  0.00  0.00    -0.306 OA
ATOM      2  O4  UNK A          37.371  -6.134   9.479  0.00  0.00    -0.284 OA
ATOM      3  C1  UNK A          37.901  -4.419   7.949  0.00  0.00     0.084 A 
ATOM      4  C2  UNK A          38.079  -4.102   6.604  0.00  0.00     0.096 A 
ATOM      5  C3  UNK A          37.571  -6.318   5.934  0.00  0.00     0.123 A 
ATOM      6  C5  UNK A          37.378  -6.754   7.193  0.00  0.00     0.152 A 
ATOM      7  C6  UNK A          37.535  -5.796   8.314  0.00  0.00     0.223 A 
ATOM      8  C7  UNK A          38.070  -3.440   8.932  0.00  0.00     0.085 A 
ATOM      9  C8  UNK A          38.430  -2.803   6.234  0.00  0.00     0.075 A 
ATOM     10  C9  UNK A          38.598  -1.823   7.212  0.00  0.00     0.071 A 
ATOM     11  C11 UNK A          38.419  -2.143   8.559  0.00  0.00     0.074 A 
ENDROOT
BRANCH   5  12
ATOM     12  C4  UNK A          37.443  -7.201   4.762  0.00  0.00     0.004 A 
ATOM     13  C10 UNK A          38.487  -8.058   4.415  0.00  0.00     0.053 A 
ATOM     14  C13 UNK A          38.365  -8.895   3.307  0.00  0.00     0.099 A 
ATOM     15  C15 UNK A          37.197  -8.873   2.543  0.00  0.00     0.098 A 
ATOM     16  C14 UNK A          36.153  -8.017   2.889  0.00  0.00     0.040 A 
ATOM     17  C12 UNK A          36.275  -7.180   3.998  0.00  0.00     0.017 A 
BRANCH  14  18
ATOM     18  O6  UNK A          39.392  -9.726   2.977  0.00  0.00    -0.358 OA
ATOM     19  H9  UNK A          40.177  -9.203   2.748  0.00  0.00     0.217 HD
ENDBRANCH  14  18
BRANCH  15  20
ATOM     20  O7  UNK A          37.065  -9.687   1.458  0.00  0.00    -0.358 OA
ATOM     21  H10 UNK A          36.130  -9.911   1.328  0.00  0.00     0.217 HD
ENDBRANCH  15  20
ENDBRANCH   5  12
BRANCH   6  22
ATOM     22  O2  UNK A          37.055  -8.059   7.496  0.00  0.00    -0.355 OA
ATOM     23  H6  UNK A          36.284  -8.337   6.975  0.00  0.00     0.218 HD
ENDBRANCH   6  22
BRANCH   8  24
ATOM     24  O3  UNK A          37.908  -3.698  10.261  0.00  0.00    -0.360 OA
ATOM     25  H7  UNK A          38.768  -3.764  10.702  0.00  0.00     0.217 HD
ENDBRANCH   8  24
BRANCH  10  26
ATOM     26  O5  UNK A          38.939  -0.557   6.853  0.00  0.00    -0.361 OA
ATOM     27  H8  UNK A          39.803  -0.338   7.244  0.00  0.00     0.217 HD
ENDBRANCH  10  26
TORSDOF 6
ENDMDL
MODEL 8
REMARK VINA RESULT:      -5.8      2.335      7.118
REMARK  6 active torsions:
REMARK  status: ('A' for Active; 'I' for Inactive)
REMARK    1  A    between atoms: O2_2  and  C5_12 
REMARK    2  A    between atoms: O3_3  and  C7_14 
REMARK    3  A    between atoms: O5_5  and  C9_16 
REMARK    4  A    between atoms: O6_6  and  C13_20 
REMARK    5  A    between atoms: O7_7  and  C15_22 
REMARK    6  A    between atoms: C3_10  and  C4_11 
ROOT
ATOM      1  O1  UNK A          43.878  -0.113   9.194  0.00  0.00    -0.306 OA
ATOM      2  O4  UNK A          40.930   2.036   7.377  0.00  0.00    -0.284 OA
ATOM      3  C1  UNK A          41.524   0.150   8.662  0.00  0.00     0.084 A 
ATOM      4  C2  UNK A          42.577  -0.539   9.261  0.00  0.00     0.096 A 
ATOM      5  C3  UNK A          44.155   1.062   8.512  0.00  0.00     0.123 A 
ATOM      6  C5  UNK A          43.233   1.816   7.885  0.00  0.00     0.152 A 
ATOM      7  C6  UNK A          41.813   1.391   7.927  0.00  0.00     0.223 A 
ATOM      8  C7  UNK A          40.217  -0.333   8.763  0.00  0.00     0.085 A 
ATOM      9  C8  UNK A          42.329  -1.720   9.962  0.00  0.00     0.075 A 
ATOM     10  C9  UNK A          41.025  -2.206  10.065  0.00  0.00     0.071 A 
ATOM     11  C11 UNK A          39.972  -1.513   9.465  0.00  0.00     0.074 A 
ENDROOT
BRANCH   5  12
ATOM     12  C4  UNK A          45.588   1.405   8.517  0.00  0.00     0.004 A 
ATOM     13  C10 UNK A          46.246   1.674   7.317  0.00  0.00     0.053 A 
ATOM     14  C13 UNK A          47.602   2.000   7.322  0.00  0.00     0.099 A 
ATOM     15  C15 UNK A          48.301   2.057   8.528  0.00  0.00     0.098 A 
ATOM     16  C14 UNK A          47.643   1.788   9.728  0.00  0.00     0.040 A 
ATOM     17  C12 UNK A          46.287   1.463   9.723  0.00  0.00     0.017 A 
BRANCH  14  18
ATOM     18  O6  UNK A          48.234   2.259   6.144  0.00  0.00    -0.358 OA
ATOM     19  H9  UNK A          48.704   1.465   5.842  0.00  0.00     0.217 HD
ENDBRANCH  14  18
BRANCH  15  20
ATOM     20  O7  UNK A          49.625   2.376   8.546  0.00  0.00    -0.358 OA
ATOM     21  H10 UNK A          49.730   3.330   8.686  0.00  0.00     0.217 HD
ENDBRANCH  15  20
ENDBRANCH   5  12
BRANCH   6  22
ATOM     22  O2  UNK A          43.546   2.962   7.188  0.00  0.00    -0.355 OA
ATOM     23  H6  UNK A          43.315   3.744   7.717  0.00  0.00     0.218 HD
ENDBRANCH   6  22
BRANCH   8  24
ATOM     24  O3  UNK A          39.153   0.302   8.197  0.00  0.00    -0.360 OA
ATOM     25  H7  UNK A          39.436   0.819   7.427  0.00  0.00     0.217 HD
ENDBRANCH   8  24
BRANCH  10  26
ATOM     26  O5  UNK A          40.781  -3.356  10.748  0.00  0.00    -0.361 OA
ATOM     27  H8  UNK A          41.113  -3.260  11.658  0.00  0.00     0.217 HD
ENDBRANCH  10  26
TORSDOF 6
ENDMDL
MODEL 9
REMARK VINA RESULT:      -5.8      1.777      7.064
REMARK  6 active torsions:
REMARK  status: ('A' for Active; 'I' for Inactive)
REMARK    1  A    between atoms: O2_2  and  C5_12 
REMARK    2  A    between atoms: O3_3  and  C7_14 
REMARK    3  A    between atoms: O5_5  and  C9_16 
REMARK    4  A    between atoms: O6_6  and  C13_20 
REMARK    5  A    between atoms: O7_7  and  C15_22 
REMARK    6  A    between atoms: C3_10  and  C4_11 
ROOT
ATOM      1  O1  UNK A          42.800   2.099   7.722  0.00  0.00    -0.306 OA
ATOM      2  O4  UNK A          42.260  -1.353   9.820  0.00  0.00    -0.284 OA
ATOM      3  C1  UNK A          41.326   0.303   8.424  0.00  0.00     0.084 A 
ATOM      4  C2  UNK A          41.575   1.484   7.729  0.00  0.00     0.096 A 
ATOM      5  C3  UNK A          43.839   1.512   8.428  0.00  0.00     0.123 A 
ATOM      6  C5  UNK A          43.729   0.379   9.146  0.00  0.00     0.152 A 
ATOM      7  C6  UNK A          42.421  -0.318   9.186  0.00  0.00     0.223 A 
ATOM      8  C7  UNK A          40.056  -0.278   8.396  0.00  0.00     0.085 A 
ATOM      9  C8  UNK A          40.552   2.094   7.001  0.00  0.00     0.075 A 
ATOM     10  C9  UNK A          39.283   1.517   6.970  0.00  0.00     0.071 A 
ATOM     11  C11 UNK A          39.036   0.333   7.667  0.00  0.00     0.074 A 
ENDROOT
BRANCH   5  12
ATOM     12  C4  UNK A          45.097   2.273   8.337  0.00  0.00     0.004 A 
ATOM     13  C10 UNK A          45.979   2.042   7.281  0.00  0.00     0.053 A 
ATOM     14  C13 UNK A          47.169   2.763   7.195  0.00  0.00     0.099 A 
ATOM     15  C15 UNK A          47.480   3.714   8.167  0.00  0.00     0.098 A 
ATOM     16  C14 UNK A          46.599   3.945   9.223  0.00  0.00     0.040 A 
ATOM     17  C12 UNK A          45.408   3.225   9.309  0.00  0.00     0.017 A 
BRANCH  14  18
ATOM     18  O6  UNK A          48.023   2.528   6.160  0.00  0.00    -0.358 OA
ATOM     19  H9  UNK A          48.086   1.573   5.997  0.00  0.00     0.217 HD
ENDBRANCH  14  18
BRANCH  15  20
ATOM     20  O7  UNK A          48.640   4.426   8.093  0.00  0.00    -0.358 OA
ATOM     21  H10 UNK A          49.388   3.821   7.967  0.00  0.00     0.217 HD
ENDBRANCH  15  20
ENDBRANCH   5  12
BRANCH   6  22
ATOM     22  O2  UNK A          44.774  -0.161   9.863  0.00  0.00    -0.355 OA
ATOM     23  H6  UNK A          44.470  -0.945  10.350  0.00  0.00     0.218 HD
ENDBRANCH   6  22
BRANCH   8  24
ATOM     24  O3  UNK A          39.761  -1.432   9.058  0.00  0.00    -0.360 OA
ATOM     25  H7  UNK A          38.822  -1.651   8.958  0.00  0.00     0.217 HD
ENDBRANCH   8  24
BRANCH  10  26
ATOM     26  O5  UNK A          38.285   2.109   6.261  0.00  0.00    -0.361 OA
ATOM     27  H8  UNK A          38.343   3.073   6.376  0.00  0.00     0.217 HD
ENDBRANCH  10  26
TORSDOF 6
ENDMDL
MODEL 10
REMARK VINA RESULT:      -5.7      5.913      9.354
REMARK  6 active torsions:
REMARK  status: ('A' for Active; 'I' for Inactive)
REMARK    1  A    between atoms: O2_2  and  C5_12 
REMARK    2  A    between atoms: O3_3  and  C7_14 
REMARK    3  A    between atoms: O5_5  and  C9_16 
REMARK    4  A    between atoms: O6_6  and  C13_20 
REMARK    5  A    between atoms: O7_7  and  C15_22 
REMARK    6  A    between atoms: C3_10  and  C4_11 
ROOT
ATOM      1  O1  UNK A          38.770  -3.939   6.470  0.00  0.00    -0.306 OA
ATOM      2  O4  UNK A          35.361  -1.841   7.240  0.00  0.00    -0.284 OA
ATOM      3  C1  UNK A          37.715  -1.941   7.355  0.00  0.00     0.084 A 
ATOM      4  C2  UNK A          38.842  -2.708   7.067  0.00  0.00     0.096 A 
ATOM      5  C3  UNK A          37.522  -4.436   6.126  0.00  0.00     0.123 A 
ATOM      6  C5  UNK A          36.358  -3.801   6.357  0.00  0.00     0.152 A 
ATOM      7  C6  UNK A          36.387  -2.468   7.006  0.00  0.00     0.223 A 
ATOM      8  C7  UNK A          37.850  -0.692   7.967  0.00  0.00     0.085 A 
ATOM      9  C8  UNK A          40.113  -2.230   7.391  0.00  0.00     0.075 A 
ATOM     10  C9  UNK A          40.251  -0.984   8.001  0.00  0.00     0.071 A 
ATOM     11  C11 UNK A          39.121  -0.217   8.289  0.00  0.00     0.074 A 
ENDROOT
BRANCH   5  12
ATOM     12  C4  UNK A          37.586  -5.765   5.493  0.00  0.00     0.004 A 
ATOM     13  C10 UNK A          37.973  -6.877   6.241  0.00  0.00     0.053 A 
ATOM     14  C13 UNK A          38.032  -8.135   5.641  0.00  0.00     0.099 A 
ATOM     15  C15 UNK A          37.707  -8.280   4.292  0.00  0.00     0.098 A 
ATOM     16  C14 UNK A          37.320  -7.169   3.544  0.00  0.00     0.040 A 
ATOM     17  C12 UNK A          37.259  -5.911   4.144  0.00  0.00     0.017 A 
BRANCH  14  18
ATOM     18  O6  UNK A          38.413  -9.213   6.381  0.00  0.00    -0.358 OA
ATOM     19  H9  UNK A          38.835  -8.915   7.203  0.00  0.00     0.217 HD
ENDBRANCH  14  18
BRANCH  15  20
ATOM     20  O7  UNK A          37.760  -9.504   3.696  0.00  0.00    -0.358 OA
ATOM     21  H10 UNK A          37.777  -9.398   2.732  0.00  0.00     0.217 HD
ENDBRANCH  15  20
ENDBRANCH   5  12
BRANCH   6  22
ATOM     22  O2  UNK A          35.131  -4.337   6.033  0.00  0.00    -0.355 OA
ATOM     23  H6  UNK A          34.457  -3.638   6.024  0.00  0.00     0.218 HD
ENDBRANCH   6  22
BRANCH   8  24
ATOM     24  O3  UNK A          36.781   0.097   8.270  0.00  0.00    -0.360 OA
ATOM     25  H7  UNK A          37.039   0.795   8.891  0.00  0.00     0.217 HD
ENDBRANCH   8  24
BRANCH  10  26
ATOM     26  O5  UNK A          41.489  -0.516   8.318  0.00  0.00    -0.361 OA
ATOM     27  H8  UNK A          42.060  -0.578   7.533  0.00  0.00     0.217 HD
ENDBRANCH  10  26
TORSDOF 6
ENDMDL
MODEL 11
REMARK VINA RESULT:      -5.7      2.195      6.693
REMARK  6 active torsions:
REMARK  status: ('A' for Active; 'I' for Inactive)
REMARK    1  A    between atoms: O2_2  and  C5_12 
REMARK    2  A    between atoms: O3_3  and  C7_14 
REMARK    3  A    between atoms: O5_5  and  C9_16 
REMARK    4  A    between atoms: O6_6  and  C13_20 
REMARK    5  A    between atoms: O7_7  and  C15_22 
REMARK    6  A    between atoms: C3_10  and  C4_11 
ROOT
ATOM      1  O1  UNK A          41.488   3.053   8.735  0.00  0.00    -0.306 OA
ATOM      2  O4  UNK A          43.504  -0.378   9.616  0.00  0.00    -0.284 OA
ATOM      3  C1  UNK A          41.566   0.628   8.724  0.00  0.00     0.084 A 
ATOM      4  C2  UNK A          40.928   1.836   8.449  0.00  0.00     0.096 A 
ATOM      5  C3  UNK A          42.749   3.083   9.310  0.00  0.00     0.123 A 
ATOM      6  C5  UNK A          43.467   1.991   9.633  0.00  0.00     0.152 A 
ATOM      7  C6  UNK A          42.898   0.652   9.347  0.00  0.00     0.223 A 
ATOM      8  C7  UNK A          40.945  -0.584   8.412  0.00  0.00     0.085 A 
ATOM      9  C8  UNK A          39.663   1.839   7.862  0.00  0.00     0.075 A 
ATOM     10  C9  UNK A          39.039   0.631   7.548  0.00  0.00     0.071 A 
ATOM     11  C11 UNK A          39.680  -0.578   7.823  0.00  0.00     0.074 A 
ENDROOT
BRANCH   5  12
ATOM     12  C4  UNK A          43.234   4.451   9.564  0.00  0.00     0.004 A 
ATOM     13  C10 UNK A          42.558   5.276  10.463  0.00  0.00     0.053 A 
ATOM     14  C13 UNK A          43.017   6.570  10.704  0.00  0.00     0.099 A 
ATOM     15  C15 UNK A          44.153   7.041  10.044  0.00  0.00     0.098 A 
ATOM     16  C14 UNK A          44.829   6.217   9.145  0.00  0.00     0.040 A 
ATOM     17  C12 UNK A          44.370   4.922   8.905  0.00  0.00     0.017 A 
BRANCH  14  18
ATOM     18  O6  UNK A          42.348   7.367  11.583  0.00  0.00    -0.358 OA
ATOM     19  H9  UNK A          42.903   8.126  11.827  0.00  0.00     0.217 HD
ENDBRANCH  14  18
BRANCH  15  20
ATOM     20  O7  UNK A          44.612   8.304  10.273  0.00  0.00    -0.358 OA
ATOM     21  H10 UNK A          45.464   8.264  10.736  0.00  0.00     0.217 HD
ENDBRANCH  15  20
ENDBRANCH   5  12
BRANCH   6  22
ATOM     22  O2  UNK A          44.705   2.054  10.234  0.00  0.00    -0.355 OA
ATOM     23  H6  UNK A          45.394   1.799   9.599  0.00  0.00     0.218 HD
ENDBRANCH   6  22
BRANCH   8  24
ATOM     24  O3  UNK A          41.525  -1.792   8.660  0.00  0.00    -0.360 OA
ATOM     25  H7  UNK A          41.804  -1.852   9.586  0.00  0.00     0.217 HD
ENDBRANCH   8  24
BRANCH  10  26
ATOM     26  O5  UNK A          37.806   0.632   6.975  0.00  0.00    -0.361 OA
ATOM     27  H8  UNK A          37.647   1.501   6.568  0.00  0.00     0.217 HD
ENDBRANCH  10  26
TORSDOF 6
ENDMDL
MODEL 12
REMARK VINA RESULT:      -5.7      3.373      5.143
REMARK  6 active torsions:
REMARK  status: ('A' for Active; 'I' for Inactive)
REMARK    1  A    between atoms: O2_2  and  C5_12 
REMARK    2  A    between atoms: O3_3  and  C7_14 
REMARK    3  A    between atoms: O5_5  and  C9_16 
REMARK    4  A    between atoms: O6_6  and  C13_20 
REMARK    5  A    between atoms: O7_7  and  C15_22 
REMARK    6  A    between atoms: C3_10  and  C4_11 
ROOT
ATOM      1  O1  UNK A          40.823  -1.426   8.577  0.00  0.00    -0.306 OA
ATOM      2  O4  UNK A          39.210   2.277   8.033  0.00  0.00    -0.284 OA
ATOM      3  C1  UNK A          41.061   0.986   8.717  0.00  0.00     0.084 A 
ATOM      4  C2  UNK A          41.554  -0.307   8.881  0.00  0.00     0.096 A 
ATOM      5  C3  UNK A          39.543  -1.262   8.072  0.00  0.00     0.123 A 
ATOM      6  C5  UNK A          38.947  -0.072   7.874  0.00  0.00     0.152 A 
ATOM      7  C6  UNK A          39.698   1.166   8.194  0.00  0.00     0.223 A 
ATOM      8  C7  UNK A          41.852   2.089   9.046  0.00  0.00     0.085 A 
ATOM      9  C8  UNK A          42.843  -0.504   9.379  0.00  0.00     0.075 A 
ATOM     10  C9  UNK A          43.636   0.595   9.708  0.00  0.00     0.071 A 
ATOM     11  C11 UNK A          43.140   1.890   9.542  0.00  0.00     0.074 A 
ENDROOT
BRANCH   5  12
ATOM     12  C4  UNK A          38.869  -2.541   7.787  0.00  0.00     0.004 A 
ATOM     13  C10 UNK A          38.911  -3.082   6.502  0.00  0.00     0.053 A 
ATOM     14  C13 UNK A          38.275  -4.294   6.233  0.00  0.00     0.099 A 
ATOM     15  C15 UNK A          37.594  -4.964   7.249  0.00  0.00     0.098 A 
ATOM     16  C14 UNK A          37.551  -4.423   8.534  0.00  0.00     0.040 A 
ATOM     17  C12 UNK A          38.188  -3.212   8.803  0.00  0.00     0.017 A 
BRANCH  14  18
ATOM     18  O6  UNK A          38.322  -4.811   4.974  0.00  0.00    -0.358 OA
ATOM     19  H9  UNK A          38.717  -4.164   4.367  0.00  0.00     0.217 HD
ENDBRANCH  14  18
BRANCH  15  20
ATOM     20  O7  UNK A          36.969  -6.149   6.999  0.00  0.00    -0.358 OA
ATOM     21  H10 UNK A          36.971  -6.695   7.800  0.00  0.00     0.217 HD
ENDBRANCH  15  20
ENDBRANCH   5  12
BRANCH   6  22
ATOM     22  O2  UNK A          37.659   0.056   7.400  0.00  0.00    -0.355 OA
ATOM     23  H6  UNK A          37.390   0.988   7.424  0.00  0.00     0.218 HD
ENDBRANCH   6  22
BRANCH   8  24
ATOM     24  O3  UNK A          41.417   3.373   8.905  0.00  0.00    -0.360 OA
ATOM     25  H7  UNK A          40.590   3.508   9.392  0.00  0.00     0.217 HD
ENDBRANCH   8  24
BRANCH  10  26
ATOM     26  O5  UNK A          44.893   0.406  10.192  0.00  0.00    -0.361 OA
ATOM     27  H8  UNK A          45.507   0.991   9.717  0.00  0.00     0.217 HD
ENDBRANCH  10  26
TORSDOF 6
ENDMDL
MODEL 13
REMARK VINA RESULT:      -5.6      9.566     13.329
REMARK  6 active torsions:
REMARK  status: ('A' for Active; 'I' for Inactive)
REMARK    1  A    between atoms: O2_2  and  C5_12 
REMARK    2  A    between atoms: O3_3  and  C7_14 
REMARK    3  A    between atoms: O5_5  and  C9_16 
REMARK    4  A    between atoms: O6_6  and  C13_20 
REMARK    5  A    between atoms: O7_7  and  C15_22 
REMARK    6  A    between atoms: C3_10  and  C4_11 
ROOT
ATOM      1  O1  UNK A          37.954  -8.374   5.914  0.00  0.00    -0.306 OA
ATOM      2  O4  UNK A          37.320 -10.034   2.247  0.00  0.00    -0.284 OA
ATOM      3  C1  UNK A          38.163 -10.286   4.435  0.00  0.00     0.084 A 
ATOM      4  C2  UNK A          38.352  -9.661   5.666  0.00  0.00     0.096 A 
ATOM      5  C3  UNK A          37.326  -7.668   4.900  0.00  0.00     0.123 A 
ATOM      6  C5  UNK A          37.091  -8.151   3.667  0.00  0.00     0.152 A 
ATOM      7  C6  UNK A          37.508  -9.539   3.351  0.00  0.00     0.223 A 
ATOM      8  C7  UNK A          38.590 -11.602   4.239  0.00  0.00     0.085 A 
ATOM      9  C8  UNK A          38.972 -10.349   6.710  0.00  0.00     0.075 A 
ATOM     10  C9  UNK A          39.400 -11.663   6.518  0.00  0.00     0.071 A 
ATOM     11  C11 UNK A          39.209 -12.287   5.285  0.00  0.00     0.074 A 
ENDROOT
BRANCH   5  12
ATOM     12  C4  UNK A          36.951  -6.300   5.299  0.00  0.00     0.004 A 
ATOM     13  C10 UNK A          37.925  -5.304   5.383  0.00  0.00     0.053 A 
ATOM     14  C13 UNK A          37.569  -4.010   5.759  0.00  0.00     0.099 A 
ATOM     15  C15 UNK A          36.239  -3.709   6.052  0.00  0.00     0.098 A 
ATOM     16  C14 UNK A          35.264  -4.704   5.968  0.00  0.00     0.040 A 
ATOM     17  C12 UNK A          35.620  -5.999   5.591  0.00  0.00     0.017 A 
BRANCH  14  18
ATOM     18  O6  UNK A          38.529  -3.047   5.839  0.00  0.00    -0.358 OA
ATOM     19  H9  UNK A          39.059  -3.178   6.642  0.00  0.00     0.217 HD
ENDBRANCH  14  18
BRANCH  15  20
ATOM     20  O7  UNK A          35.879  -2.447   6.419  0.00  0.00    -0.358 OA
ATOM     21  H10 UNK A          34.995  -2.246   6.074  0.00  0.00     0.217 HD
ENDBRANCH  15  20
ENDBRANCH   5  12
BRANCH   6  22
ATOM     22  O2  UNK A          36.493  -7.412   2.670  0.00  0.00    -0.355 OA
ATOM     23  H6  UNK A          37.166  -7.086   2.051  0.00  0.00     0.218 HD
ENDBRANCH   6  22
BRANCH   8  24
ATOM     24  O3  UNK A          38.430 -12.258   3.056  0.00  0.00    -0.360 OA
ATOM     25  H7  UNK A          39.215 -12.151   2.498  0.00  0.00     0.217 HD
ENDBRANCH   8  24
BRANCH  10  26
ATOM     26  O5  UNK A          40.005 -12.335   7.534  0.00  0.00    -0.361 OA
ATOM     27  H8  UNK A          39.463 -12.249   8.337  0.00  0.00     0.217 HD
ENDBRANCH  10  26
TORSDOF 6
ENDMDL
MODEL 14
REMARK VINA RESULT:      -5.6      2.324      2.864
REMARK  6 active torsions:
REMARK  status: ('A' for Active; 'I' for Inactive)
REMARK    1  A    between atoms: O2_2  and  C5_12 
REMARK    2  A    between atoms: O3_3  and  C7_14 
REMARK    3  A    between atoms: O5_5  and  C9_16 
REMARK    4  A    between atoms: O6_6  and  C13_20 
REMARK    5  A    between atoms: O7_7  and  C15_22 
REMARK    6  A    between atoms: C3_10  and  C4_11 
ROOT
ATOM      1  O1  UNK A          44.376   0.859   8.163  0.00  0.00    -0.306 OA
ATOM      2  O4  UNK A          44.458   3.907  10.868  0.00  0.00    -0.284 OA
ATOM      3  C1  UNK A          45.464   2.856   9.011  0.00  0.00     0.084 A 
ATOM      4  C2  UNK A          45.380   1.790   8.117  0.00  0.00     0.096 A 
ATOM      5  C3  UNK A          43.395   0.991   9.134  0.00  0.00     0.123 A 
ATOM      6  C5  UNK A          43.365   1.967  10.060  0.00  0.00     0.152 A 
ATOM      7  C6  UNK A          44.434   2.994  10.052  0.00  0.00     0.223 A 
ATOM      8  C7  UNK A          46.512   3.775   8.917  0.00  0.00     0.085 A 
ATOM      9  C8  UNK A          46.347   1.636   7.123  0.00  0.00     0.075 A 
ATOM     10  C9  UNK A          47.395   2.552   7.025  0.00  0.00     0.071 A 
ATOM     11  C11 UNK A          47.476   3.619   7.921  0.00  0.00     0.074 A 
ENDROOT
BRANCH   5  12
ATOM     12  C4  UNK A          42.378  -0.074   9.072  0.00  0.00     0.004 A 
ATOM     13  C10 UNK A          42.571  -1.266   9.770  0.00  0.00     0.053 A 
ATOM     14  C13 UNK A          41.608  -2.273   9.713  0.00  0.00     0.099 A 
ATOM     15  C15 UNK A          40.451  -2.088   8.955  0.00  0.00     0.098 A 
ATOM     16  C14 UNK A          40.257  -0.896   8.257  0.00  0.00     0.040 A 
ATOM     17  C12 UNK A          41.220   0.111   8.315  0.00  0.00     0.017 A 
BRANCH  14  18
ATOM     18  O6  UNK A          41.808  -3.433  10.397  0.00  0.00    -0.358 OA
ATOM     19  H9  UNK A          42.429  -3.999   9.910  0.00  0.00     0.217 HD
ENDBRANCH  14  18
BRANCH  15  20
ATOM     20  O7  UNK A          39.502  -3.064   8.892  0.00  0.00    -0.358 OA
ATOM     21  H10 UNK A          39.915  -3.906   8.646  0.00  0.00     0.217 HD
ENDBRANCH  15  20
ENDBRANCH   5  12
BRANCH   6  22
ATOM     22  O2  UNK A          42.392   2.051  11.033  0.00  0.00    -0.355 OA
ATOM     23  H6  UNK A          42.792   2.317  11.877  0.00  0.00     0.218 HD
ENDBRANCH   6  22
BRANCH   8  24
ATOM     24  O3  UNK A          46.640   4.833   9.765  0.00  0.00    -0.360 OA
ATOM     25  H7  UNK A          47.197   5.521   9.370  0.00  0.00     0.217 HD
ENDBRANCH   8  24
BRANCH  10  26
ATOM     26  O5  UNK A          48.338   2.404   6.056  0.00  0.00    -0.361 OA
ATOM     27  H8  UNK A          48.091   1.655   5.486  0.00  0.00     0.217 HD
ENDBRANCH  10  26
TORSDOF 6
ENDMDL
MODEL 15
REMARK VINA RESULT:      -5.5      2.091      2.833
REMARK  6 active torsions:
REMARK  status: ('A' for Active; 'I' for Inactive)
REMARK    1  A    between atoms: O2_2  and  C5_12 
REMARK    2  A    between atoms: O3_3  and  C7_14 
REMARK    3  A    between atoms: O5_5  and  C9_16 
REMARK    4  A    between atoms: O6_6  and  C13_20 
REMARK    5  A    between atoms: O7_7  and  C15_22 
REMARK    6  A    between atoms: C3_10  and  C4_11 
ROOT
ATOM      1  O1  UNK A          42.333   0.296   8.231  0.00  0.00    -0.306 OA
ATOM      2  O4  UNK A          40.969   3.801   9.800  0.00  0.00    -0.284 OA
ATOM      3  C1  UNK A          42.771   2.595   8.872  0.00  0.00     0.084 A 
ATOM      4  C2  UNK A          43.176   1.370   8.346  0.00  0.00     0.096 A 
ATOM      5  C3  UNK A          41.018   0.439   8.644  0.00  0.00     0.123 A 
ATOM      6  C5  UNK A          40.504   1.563   9.176  0.00  0.00     0.152 A 
ATOM      7  C6  UNK A          41.380   2.750   9.325  0.00  0.00     0.223 A 
ATOM      8  C7  UNK A          43.676   3.656   8.966  0.00  0.00     0.085 A 
ATOM      9  C8  UNK A          44.491   1.198   7.912  0.00  0.00     0.075 A 
ATOM     10  C9  UNK A          45.397   2.255   8.004  0.00  0.00     0.071 A 
ATOM     11  C11 UNK A          44.989   3.481   8.531  0.00  0.00     0.074 A 
ENDROOT
BRANCH   5  12
ATOM     12  C4  UNK A          40.222  -0.788   8.466  0.00  0.00     0.004 A 
ATOM     13  C10 UNK A          39.587  -1.038   7.249  0.00  0.00     0.053 A 
ATOM     14  C13 UNK A          38.836  -2.200   7.079  0.00  0.00     0.099 A 
ATOM     15  C15 UNK A          38.716  -3.112   8.129  0.00  0.00     0.098 A 
ATOM     16  C14 UNK A          39.349  -2.862   9.346  0.00  0.00     0.040 A 
ATOM     17  C12 UNK A          40.103  -1.700   9.515  0.00  0.00     0.017 A 
BRANCH  14  18
ATOM     18  O6  UNK A          38.220  -2.433   5.887  0.00  0.00    -0.358 OA
ATOM     19  H9  UNK A          38.308  -3.370   5.650  0.00  0.00     0.217 HD
ENDBRANCH  14  18
BRANCH  15  20
ATOM     20  O7  UNK A          37.984  -4.251   7.975  0.00  0.00    -0.358 OA
ATOM     21  H10 UNK A          38.389  -4.971   8.484  0.00  0.00     0.217 HD
ENDBRANCH  15  20
ENDBRANCH   5  12
BRANCH   6  22
ATOM     22  O2  UNK A          39.199   1.663   9.608  0.00  0.00    -0.355 OA
ATOM     23  H6  UNK A          39.097   1.206  10.458  0.00  0.00     0.218 HD
ENDBRANCH   6  22
BRANCH   8  24
ATOM     24  O3  UNK A          43.330   4.873   9.473  0.00  0.00    -0.360 OA
ATOM     25  H7  UNK A          43.485   4.900  10.429  0.00  0.00     0.217 HD
ENDBRANCH   8  24
BRANCH  10  26
ATOM     26  O5  UNK A          46.679   2.089   7.581  0.00  0.00    -0.361 OA
ATOM     27  H8  UNK A          46.709   1.358   6.940  0.00  0.00     0.217 HD
ENDBRANCH  10  26
TORSDOF 6
ENDMDL
MODEL 16
REMARK VINA RESULT:      -5.5      2.640      6.828
REMARK  6 active torsions:
REMARK  status: ('A' for Active; 'I' for Inactive)
REMARK    1  A    between atoms: O2_2  and  C5_12 
REMARK    2  A    between atoms: O3_3  and  C7_14 
REMARK    3  A    between atoms: O5_5  and  C9_16 
REMARK    4  A    between atoms: O6_6  and  C13_20 
REMARK    5  A    between atoms: O7_7  and  C15_22 
REMARK    6  A    between atoms: C3_10  and  C4_11 
ROOT
ATOM      1  O1  UNK A          41.992   1.148  10.578  0.00  0.00    -0.306 OA
ATOM      2  O4  UNK A          39.638  -0.188   7.532  0.00  0.00    -0.284 OA
ATOM      3  C1  UNK A          40.546  -0.578   9.673  0.00  0.00     0.084 A 
ATOM      4  C2  UNK A          41.364  -0.066  10.678  0.00  0.00     0.096 A 
ATOM      5  C3  UNK A          41.794   1.904   9.433  0.00  0.00     0.123 A 
ATOM      6  C5  UNK A          41.036   1.522   8.389  0.00  0.00     0.152 A 
ATOM      7  C6  UNK A          40.342   0.213   8.450  0.00  0.00     0.223 A 
ATOM      8  C7  UNK A          39.933  -1.823   9.830  0.00  0.00     0.085 A 
ATOM      9  C8  UNK A          41.576  -0.798  11.847  0.00  0.00     0.075 A 
ATOM     10  C9  UNK A          40.965  -2.042  12.007  0.00  0.00     0.071 A 
ATOM     11  C11 UNK A          40.145  -2.553  10.999  0.00  0.00     0.074 A 
ENDROOT
BRANCH   5  12
ATOM     12  C4  UNK A          42.524   3.184   9.455  0.00  0.00     0.004 A 
ATOM     13  C10 UNK A          41.929   4.318  10.008  0.00  0.00     0.053 A 
ATOM     14  C13 UNK A          42.621   5.529  10.030  0.00  0.00     0.099 A 
ATOM     15  C15 UNK A          43.908   5.606   9.496  0.00  0.00     0.098 A 
ATOM     16  C14 UNK A          44.503   4.473   8.942  0.00  0.00     0.040 A 
ATOM     17  C12 UNK A          43.811   3.261   8.922  0.00  0.00     0.017 A 
BRANCH  14  18
ATOM     18  O6  UNK A          42.030   6.630  10.571  0.00  0.00    -0.358 OA
ATOM     19  H9  UNK A          41.092   6.447  10.746  0.00  0.00     0.217 HD
ENDBRANCH  14  18
BRANCH  15  20
ATOM     20  O7  UNK A          44.594   6.783   9.512  0.00  0.00    -0.358 OA
ATOM     21  H10 UNK A          44.023   7.490   9.851  0.00  0.00     0.217 HD
ENDBRANCH  15  20
ENDBRANCH   5  12
BRANCH   6  22
ATOM     22  O2  UNK A          40.886   2.283   7.250  0.00  0.00    -0.355 OA
ATOM     23  H6  UNK A          40.417   3.106   7.463  0.00  0.00     0.218 HD
ENDBRANCH   6  22
BRANCH   8  24
ATOM     24  O3  UNK A          39.124  -2.369   8.878  0.00  0.00    -0.360 OA
ATOM     25  H7  UNK A          38.192  -2.211   9.092  0.00  0.00     0.217 HD
ENDBRANCH   8  24
BRANCH  10  26
ATOM     26  O5  UNK A          41.169  -2.758  13.145  0.00  0.00    -0.361 OA
ATOM     27  H8  UNK A          40.645  -3.576  13.103  0.00  0.00     0.217 HD
ENDBRANCH  10  26
TORSDOF 6
ENDMDL
MODEL 17
REMARK VINA RESULT:      -5.5      2.211      3.165
REMARK  6 active torsions:
REMARK  status: ('A' for Active; 'I' for Inactive)
REMARK    1  A    between atoms: O2_2  and  C5_12 
REMARK    2  A    between atoms: O3_3  and  C7_14 
REMARK    3  A    between atoms: O5_5  and  C9_16 
REMARK    4  A    between atoms: O6_6  and  C13_20 
REMARK    5  A    between atoms: O7_7  and  C15_22 
REMARK    6  A    between atoms: C3_10  and  C4_11 
ROOT
ATOM      1  O1  UNK A          45.007   2.254   7.810  0.00  0.00    -0.306 OA
ATOM      2  O4  UNK A          47.019   0.760  11.024  0.00  0.00    -0.284 OA
ATOM      3  C1  UNK A          47.123   1.783   8.901  0.00  0.00     0.084 A 
ATOM      4  C2  UNK A          46.377   2.276   7.832  0.00  0.00     0.096 A 
ATOM      5  C3  UNK A          44.335   1.729   8.903  0.00  0.00     0.123 A 
ATOM      6  C5  UNK A          44.936   1.215   9.992  0.00  0.00     0.152 A 
ATOM      7  C6  UNK A          46.417   1.213  10.059  0.00  0.00     0.223 A 
ATOM      8  C7  UNK A          48.519   1.831   8.868  0.00  0.00     0.085 A 
ATOM      9  C8  UNK A          47.024   2.819   6.722  0.00  0.00     0.075 A 
ATOM     10  C9  UNK A          48.418   2.869   6.686  0.00  0.00     0.071 A 
ATOM     11  C11 UNK A          49.163   2.375   7.757  0.00  0.00     0.074 A 
ENDROOT
BRANCH   5  12
ATOM     12  C4  UNK A          42.871   1.766   8.750  0.00  0.00     0.004 A 
ATOM     13  C10 UNK A          42.156   2.900   9.137  0.00  0.00     0.053 A 
ATOM     14  C13 UNK A          40.770   2.935   8.991  0.00  0.00     0.099 A 
ATOM     15  C15 UNK A          40.097   1.834   8.458  0.00  0.00     0.098 A 
ATOM     16  C14 UNK A          40.811   0.701   8.071  0.00  0.00     0.040 A 
ATOM     17  C12 UNK A          42.198   0.666   8.216  0.00  0.00     0.017 A 
BRANCH  14  18
ATOM     18  O6  UNK A          40.082   4.046   9.374  0.00  0.00    -0.358 OA
ATOM     19  H9  UNK A          39.136   3.927   9.190  0.00  0.00     0.217 HD
ENDBRANCH  14  18
BRANCH  15  20
ATOM     20  O7  UNK A          38.743   1.857   8.309  0.00  0.00    -0.358 OA
ATOM     21  H10 UNK A          38.447   1.040   7.878  0.00  0.00     0.217 HD
ENDBRANCH  15  20
ENDBRANCH   5  12
BRANCH   6  22
ATOM     22  O2  UNK A          44.239   0.670  11.049  0.00  0.00    -0.355 OA
ATOM     23  H6  UNK A          43.436   0.232  10.724  0.00  0.00     0.218 HD
ENDBRANCH   6  22
BRANCH   8  24
ATOM     24  O3  UNK A          49.295   1.362   9.886  0.00  0.00    -0.360 OA
ATOM     25  H7  UNK A          49.529   2.080  10.494  0.00  0.00     0.217 HD
ENDBRANCH   8  24
BRANCH  10  26
ATOM     26  O5  UNK A          49.051   3.399   5.604  0.00  0.00    -0.361 OA
ATOM     27  H8  UNK A          49.781   2.810   5.345  0.00  0.00     0.217 HD
ENDBRANCH  10  26
TORSDOF 6
ENDMDL
MODEL 18
REMARK VINA RESULT:      -5.5      2.534      3.630
REMARK  6 active torsions:
REMARK  status: ('A' for Active; 'I' for Inactive)
REMARK    1  A    between atoms: O2_2  and  C5_12 
REMARK    2  A    between atoms: O3_3  and  C7_14 
REMARK    3  A    between atoms: O5_5  and  C9_16 
REMARK    4  A    between atoms: O6_6  and  C13_20 
REMARK    5  A    between atoms: O7_7  and  C15_22 
REMARK    6  A    between atoms: C3_10  and  C4_11 
ROOT
ATOM      1  O1  UNK A          43.149   1.226   9.930  0.00  0.00    -0.306 OA
ATOM      2  O4  UNK A          46.358   1.571   7.442  0.00  0.00    -0.284 OA
ATOM      3  C1  UNK A          45.552   1.427   9.653  0.00  0.00     0.084 A 
ATOM      4  C2  UNK A          44.414   1.309  10.449  0.00  0.00     0.096 A 
ATOM      5  C3  UNK A          42.996   1.247   8.552  0.00  0.00     0.123 A 
ATOM      6  C5  UNK A          44.010   1.365   7.674  0.00  0.00     0.152 A 
ATOM      7  C6  UNK A          45.396   1.463   8.191  0.00  0.00     0.223 A 
ATOM      8  C7  UNK A          46.817   1.509  10.240  0.00  0.00     0.085 A 
ATOM      9  C8  UNK A          44.536   1.275  11.839  0.00  0.00     0.075 A 
ATOM     10  C9  UNK A          45.797   1.357  12.428  0.00  0.00     0.071 A 
ATOM     11  C11 UNK A          46.936   1.474  11.629  0.00  0.00     0.074 A 
ENDROOT
BRANCH   5  12
ATOM     12  C4  UNK A          41.589   1.149   8.127  0.00  0.00     0.004 A 
ATOM     13  C10 UNK A          40.926  -0.077   8.179  0.00  0.00     0.053 A 
ATOM     14  C13 UNK A          39.594  -0.168   7.779  0.00  0.00     0.099 A 
ATOM     15  C15 UNK A          38.923   0.967   7.323  0.00  0.00     0.098 A 
ATOM     16  C14 UNK A          39.585   2.194   7.271  0.00  0.00     0.040 A 
ATOM     17  C12 UNK A          40.918   2.285   7.673  0.00  0.00     0.017 A 
BRANCH  14  18
ATOM     18  O6  UNK A          38.958  -1.371   7.832  0.00  0.00    -0.358 OA
ATOM     19  H9  UNK A          38.590  -1.587   6.960  0.00  0.00     0.217 HD
ENDBRANCH  14  18
BRANCH  15  20
ATOM     20  O7  UNK A          37.621   0.891   6.931  0.00  0.00    -0.358 OA
ATOM     21  H10 UNK A          37.124   1.640   7.296  0.00  0.00     0.217 HD
ENDBRANCH  15  20
ENDBRANCH   5  12
BRANCH   6  22
ATOM     22  O2  UNK A          43.822   1.415   6.310  0.00  0.00    -0.355 OA
ATOM     23  H6  UNK A          43.940   2.326   5.994  0.00  0.00     0.218 HD
ENDBRANCH   6  22
BRANCH   8  24
ATOM     24  O3  UNK A          47.960   1.626   9.507  0.00  0.00    -0.360 OA
ATOM     25  H7  UNK A          48.724   1.761  10.088  0.00  0.00     0.217 HD
ENDBRANCH   8  24
BRANCH  10  26
ATOM     26  O5  UNK A          45.918   1.323  13.783  0.00  0.00    -0.361 OA
ATOM     27  H8  UNK A          46.824   1.054  14.013  0.00  0.00     0.217 HD
ENDBRANCH  10  26
TORSDOF 6
ENDMDL
MODEL 19
REMARK VINA RESULT:      -5.5      2.656      7.481
REMARK  6 active torsions:
REMARK  status: ('A' for Active; 'I' for Inactive)
REMARK    1  A    between atoms: O2_2  and  C5_12 
REMARK    2  A    between atoms: O3_3  and  C7_14 
REMARK    3  A    between atoms: O5_5  and  C9_16 
REMARK    4  A    between atoms: O6_6  and  C13_20 
REMARK    5  A    between atoms: O7_7  and  C15_22 
REMARK    6  A    between atoms: C3_10  and  C4_11 
ROOT
ATOM      1  O1  UNK A          40.740  -1.210   7.683  0.00  0.00    -0.306 OA
ATOM      2  O4  UNK A          37.615   0.695   9.475  0.00  0.00    -0.284 OA
ATOM      3  C1  UNK A          38.350  -1.058   8.079  0.00  0.00     0.084 A 
ATOM      4  C2  UNK A          39.461  -1.664   7.494  0.00  0.00     0.096 A 
ATOM      5  C3  UNK A          40.938  -0.110   8.502  0.00  0.00     0.123 A 
ATOM      6  C5  UNK A          39.954   0.569   9.119  0.00  0.00     0.152 A 
ATOM      7  C6  UNK A          38.552   0.119   8.939  0.00  0.00     0.223 A 
ATOM      8  C7  UNK A          37.068  -1.563   7.849  0.00  0.00     0.085 A 
ATOM      9  C8  UNK A          39.294  -2.779   6.672  0.00  0.00     0.075 A 
ATOM     10  C9  UNK A          38.016  -3.287   6.441  0.00  0.00     0.071 A 
ATOM     11  C11 UNK A          36.905  -2.679   7.029  0.00  0.00     0.074 A 
ENDROOT
BRANCH   5  12
ATOM     12  C4  UNK A          42.357   0.271   8.620  0.00  0.00     0.004 A 
ATOM     13  C10 UNK A          42.934   1.118   7.673  0.00  0.00     0.053 A 
ATOM     14  C13 UNK A          44.276   1.479   7.786  0.00  0.00     0.099 A 
ATOM     15  C15 UNK A          45.042   0.993   8.845  0.00  0.00     0.098 A 
ATOM     16  C14 UNK A          44.466   0.147   9.792  0.00  0.00     0.040 A 
ATOM     17  C12 UNK A          43.123  -0.214   9.680  0.00  0.00     0.017 A 
BRANCH  14  18
ATOM     18  O6  UNK A          44.828   2.305   6.854  0.00  0.00    -0.358 OA
ATOM     19  H9  UNK A          45.024   3.168   7.255  0.00  0.00     0.217 HD
ENDBRANCH  14  18
BRANCH  15  20
ATOM     20  O7  UNK A          46.354   1.341   8.966  0.00  0.00    -0.358 OA
ATOM     21  H10 UNK A          46.680   1.688   8.122  0.00  0.00     0.217 HD
ENDBRANCH  15  20
ENDBRANCH   5  12
BRANCH   6  22
ATOM     22  O2  UNK A          40.181   1.681   9.901  0.00  0.00    -0.355 OA
ATOM     23  H6  UNK A          39.383   1.896  10.410  0.00  0.00     0.218 HD
ENDBRANCH   6  22
BRANCH   8  24
ATOM     24  O3  UNK A          35.951  -1.008   8.397  0.00  0.00    -0.360 OA
ATOM     25  H7  UNK A          35.183  -1.584   8.261  0.00  0.00     0.217 HD
ENDBRANCH   8  24
BRANCH  10  26
ATOM     26  O5  UNK A          37.852  -4.375   5.641  0.00  0.00    -0.361 OA
ATOM     27  H8  UNK A          38.143  -4.152   4.740  0.00  0.00     0.217 HD
ENDBRANCH  10  26
TORSDOF 6
ENDMDL
MODEL 20
REMARK VINA RESULT:      -5.5      2.349      3.429
REMARK  6 active torsions:
REMARK  status: ('A' for Active; 'I' for Inactive)
REMARK    1  A    between atoms: O2_2  and  C5_12 
REMARK    2  A    between atoms: O3_3  and  C7_14 
REMARK    3  A    between atoms: O5_5  and  C9_16 
REMARK    4  A    between atoms: O6_6  and  C13_20 
REMARK    5  A    between atoms: O7_7  and  C15_22 
REMARK    6  A    between atoms: C3_10  and  C4_11 
ROOT
ATOM      1  O1  UNK A          44.277   1.033   9.327  0.00  0.00    -0.306 OA
ATOM      2  O4  UNK A          46.625   2.551   6.361  0.00  0.00    -0.284 OA
ATOM      3  C1  UNK A          46.492   1.607   8.519  0.00  0.00     0.084 A 
ATOM      4  C2  UNK A          45.636   1.100   9.494  0.00  0.00     0.096 A 
ATOM      5  C3  UNK A          43.734   1.476   8.131  0.00  0.00     0.123 A 
ATOM      6  C5  UNK A          44.449   1.994   7.115  0.00  0.00     0.152 A 
ATOM      7  C6  UNK A          45.922   2.091   7.252  0.00  0.00     0.223 A 
ATOM      8  C7  UNK A          47.870   1.652   8.745  0.00  0.00     0.085 A 
ATOM      9  C8  UNK A          46.153   0.638  10.705  0.00  0.00     0.075 A 
ATOM     10  C9  UNK A          47.528   0.681  10.934  0.00  0.00     0.071 A 
ATOM     11  C11 UNK A          48.385   1.187   9.956  0.00  0.00     0.074 A 
ENDROOT
BRANCH   5  12
ATOM     12  C4  UNK A          42.267   1.348   8.082  0.00  0.00     0.004 A 
ATOM     13  C10 UNK A          41.671   0.092   8.200  0.00  0.00     0.053 A 
ATOM     14  C13 UNK A          40.283  -0.028   8.156  0.00  0.00     0.099 A 
ATOM     15  C15 UNK A          39.489   1.107   7.991  0.00  0.00     0.098 A 
ATOM     16  C14 UNK A          40.085   2.363   7.873  0.00  0.00     0.040 A 
ATOM     17  C12 UNK A          41.474   2.484   7.919  0.00  0.00     0.017 A 
BRANCH  14  18
ATOM     18  O6  UNK A          39.713  -1.260   8.270  0.00  0.00    -0.358 OA
ATOM     19  H9  UNK A          39.664  -1.681   7.397  0.00  0.00     0.217 HD
ENDBRANCH  14  18
BRANCH  15  20
ATOM     20  O7  UNK A          38.132   1.002   7.947  0.00  0.00    -0.358 OA
ATOM     21  H10 UNK A          37.821   1.149   7.040  0.00  0.00     0.217 HD
ENDBRANCH  15  20
ENDBRANCH   5  12
BRANCH   6  22
ATOM     22  O2  UNK A          43.875   2.456   5.950  0.00  0.00    -0.355 OA
ATOM     23  H6  UNK A          42.911   2.509   6.056  0.00  0.00     0.218 HD
ENDBRANCH   6  22
BRANCH   8  24
ATOM     24  O3  UNK A          48.751   2.137   7.825  0.00  0.00    -0.360 OA
ATOM     25  H7  UNK A          49.568   1.616   7.829  0.00  0.00     0.217 HD
ENDBRANCH   8  24
BRANCH  10  26
ATOM     26  O5  UNK A          48.034   0.229  12.113  0.00  0.00    -0.361 OA
ATOM     27  H8  UNK A          47.709   0.795  12.835  0.00  0.00     0.217 HD
ENDBRANCH  10  26
TORSDOF 6
ENDMDL
