MODEL 1
REMARK VINA RESULT:      -7.5      0.000      0.000
REMARK  6 active torsions:
REMARK  status: ('A' for Active; 'I' for Inactive)
REMARK    1  A    between atoms: O2_2  and  C5_12 
REMARK    2  A    between atoms: O3_3  and  C7_14 
REMARK    3  A    between atoms: O5_5  and  C9_16 
REMARK    4  A    between atoms: O6_6  and  C13_20 
REMARK    5  A    between atoms: O7_7  and  C15_22 
REMARK    6  A    between atoms: C3_10  and  C4_11 
ROOT
ATOM      1  O1  UNK A          39.641  15.127   0.033  0.00  0.00    -0.306 OA
ATOM      2  O4  UNK A          41.752  15.724  -3.402  0.00  0.00    -0.284 OA
ATOM      3  C1  UNK A          40.210  16.573  -1.832  0.00  0.00     0.084 A 
ATOM      4  C2  UNK A          39.516  16.307  -0.653  0.00  0.00     0.096 A 
ATOM      5  C3  UNK A          40.506  14.163  -0.461  0.00  0.00     0.123 A 
ATOM      6  C5  UNK A          41.227  14.291  -1.590  0.00  0.00     0.152 A 
ATOM      7  C6  UNK A          41.120  15.549  -2.368  0.00  0.00     0.223 A 
ATOM      8  C7  UNK A          40.041  17.794  -2.489  0.00  0.00     0.085 A 
ATOM      9  C8  UNK A          38.645  17.261  -0.126  0.00  0.00     0.075 A 
ATOM     10  C9  UNK A          38.474  18.482  -0.779  0.00  0.00     0.071 A 
ATOM     11  C11 UNK A          39.171  18.747  -1.959  0.00  0.00     0.074 A 
ENDROOT
BRANCH   5  12
ATOM     12  C4  UNK A          40.546  12.947   0.370  0.00  0.00     0.004 A 
ATOM     13  C10 UNK A          40.354  13.036   1.749  0.00  0.00     0.053 A 
ATOM     14  C13 UNK A          40.391  11.884   2.534  0.00  0.00     0.099 A 
ATOM     15  C15 UNK A          40.623  10.643   1.942  0.00  0.00     0.098 A 
ATOM     16  C14 UNK A          40.816  10.553   0.563  0.00  0.00     0.040 A 
ATOM     17  C12 UNK A          40.778  11.705  -0.223  0.00  0.00     0.017 A 
BRANCH  14  18
ATOM     18  O6  UNK A          40.203  11.984   3.880  0.00  0.00    -0.358 OA
ATOM     19  H9  UNK A          39.657  12.762   4.078  0.00  0.00     0.217 HD
ENDBRANCH  14  18
BRANCH  15  20
ATOM     20  O7  UNK A          40.660   9.511   2.699  0.00  0.00    -0.358 OA
ATOM     21  H10 UNK A          41.360   9.586   3.366  0.00  0.00     0.217 HD
ENDBRANCH  15  20
ENDBRANCH   5  12
BRANCH   6  22
ATOM     22  O2  UNK A          42.054  13.300  -2.072  0.00  0.00    -0.355 OA
ATOM     23  H6  UNK A          42.957  13.435  -1.742  0.00  0.00     0.218 HD
ENDBRANCH   6  22
BRANCH   8  24
ATOM     24  O3  UNK A          40.696  18.104  -3.643  0.00  0.00    -0.360 OA
ATOM     25  H7  UNK A          40.304  18.887  -4.057  0.00  0.00     0.217 HD
ENDBRANCH   8  24
BRANCH  10  26
ATOM     26  O5  UNK A          37.626  19.414  -0.266  0.00  0.00    -0.361 OA
ATOM     27  H8  UNK A          37.531  20.141  -0.906  0.00  0.00     0.217 HD
ENDBRANCH  10  26
TORSDOF 6
ENDMDL
MODEL 2
REMARK VINA RESULT:      -7.2      1.181      6.433
REMARK  6 active torsions:
REMARK  status: ('A' for Active; 'I' for Inactive)
REMARK    1  A    between atoms: O2_2  and  C5_12 
REMARK    2  A    between atoms: O3_3  and  C7_14 
REMARK    3  A    between atoms: O5_5  and  C9_16 
REMARK    4  A    between atoms: O6_6  and  C13_20 
REMARK    5  A    between atoms: O7_7  and  C15_22 
REMARK    6  A    between atoms: C3_10  and  C4_11 
ROOT
ATOM      1  O1  UNK A          39.729  14.404   0.204  0.00  0.00    -0.306 OA
ATOM      2  O4  UNK A          42.324  12.744  -2.465  0.00  0.00    -0.284 OA
ATOM      3  C1  UNK A          40.966  12.460  -0.558  0.00  0.00     0.084 A 
ATOM      4  C2  UNK A          40.085  13.086   0.322  0.00  0.00     0.096 A 
ATOM      5  C3  UNK A          40.258  15.141  -0.844  0.00  0.00     0.123 A 
ATOM      6  C5  UNK A          41.123  14.659  -1.755  0.00  0.00     0.152 A 
ATOM      7  C6  UNK A          41.541  13.240  -1.664  0.00  0.00     0.223 A 
ATOM      8  C7  UNK A          41.294  11.112  -0.387  0.00  0.00     0.085 A 
ATOM      9  C8  UNK A          39.528  12.368   1.381  0.00  0.00     0.075 A 
ATOM     10  C9  UNK A          39.853  11.022   1.555  0.00  0.00     0.071 A 
ATOM     11  C11 UNK A          40.735  10.396   0.672  0.00  0.00     0.074 A 
ENDROOT
BRANCH   5  12
ATOM     12  C4  UNK A          39.794  16.540  -0.855  0.00  0.00     0.004 A 
ATOM     13  C10 UNK A          38.988  17.017   0.179  0.00  0.00     0.053 A 
ATOM     14  C13 UNK A          38.551  18.341   0.169  0.00  0.00     0.099 A 
ATOM     15  C15 UNK A          38.918  19.188  -0.877  0.00  0.00     0.098 A 
ATOM     16  C14 UNK A          39.724  18.712  -1.911  0.00  0.00     0.040 A 
ATOM     17  C12 UNK A          40.162  17.388  -1.900  0.00  0.00     0.017 A 
BRANCH  14  18
ATOM     18  O6  UNK A          37.763  18.795   1.183  0.00  0.00    -0.358 OA
ATOM     19  H9  UNK A          37.557  19.734   1.043  0.00  0.00     0.217 HD
ENDBRANCH  14  18
BRANCH  15  20
ATOM     20  O7  UNK A          38.498  20.484  -0.897  0.00  0.00    -0.358 OA
ATOM     21  H10 UNK A          37.721  20.568  -1.473  0.00  0.00     0.217 HD
ENDBRANCH  15  20
ENDBRANCH   5  12
BRANCH   6  22
ATOM     22  O2  UNK A          41.657  15.428  -2.766  0.00  0.00    -0.355 OA
ATOM     23  H6  UNK A          42.049  16.236  -2.396  0.00  0.00     0.218 HD
ENDBRANCH   6  22
BRANCH   8  24
ATOM     24  O3  UNK A          42.149  10.453  -1.218  0.00  0.00    -0.360 OA
ATOM     25  H7  UNK A          42.070   9.495  -1.097  0.00  0.00     0.217 HD
ENDBRANCH   8  24
BRANCH  10  26
ATOM     26  O5  UNK A          39.311  10.320   2.586  0.00  0.00    -0.361 OA
ATOM     27  H8  UNK A          39.378  10.849   3.399  0.00  0.00     0.217 HD
ENDBRANCH  10  26
TORSDOF 6
ENDMDL
MODEL 3
REMARK VINA RESULT:      -7.0      2.071      3.084
REMARK  6 active torsions:
REMARK  status: ('A' for Active; 'I' for Inactive)
REMARK    1  A    between atoms: O2_2  and  C5_12 
REMARK    2  A    between atoms: O3_3  and  C7_14 
REMARK    3  A    between atoms: O5_5  and  C9_16 
REMARK    4  A    between atoms: O6_6  and  C13_20 
REMARK    5  A    between atoms: O7_7  and  C15_22 
REMARK    6  A    between atoms: C3_10  and  C4_11 
ROOT
ATOM      1  O1  UNK A          39.301  17.443  -0.154  0.00  0.00    -0.306 OA
ATOM      2  O4  UNK A          40.636  18.959  -3.694  0.00  0.00    -0.284 OA
ATOM      3  C1  UNK A          39.806  19.380  -1.527  0.00  0.00     0.084 A 
ATOM      4  C2  UNK A          39.359  18.799  -0.342  0.00  0.00     0.096 A 
ATOM      5  C3  UNK A          39.719  16.614  -1.184  0.00  0.00     0.123 A 
ATOM      6  C5  UNK A          40.164  17.047  -2.378  0.00  0.00     0.152 A 
ATOM      7  C6  UNK A          40.239  18.506  -2.628  0.00  0.00     0.223 A 
ATOM      8  C7  UNK A          39.841  20.770  -1.661  0.00  0.00     0.085 A 
ATOM      9  C8  UNK A          38.941  19.607   0.717  0.00  0.00     0.075 A 
ATOM     10  C9  UNK A          38.975  20.995   0.586  0.00  0.00     0.071 A 
ATOM     11  C11 UNK A          39.424  21.575  -0.601  0.00  0.00     0.074 A 
ENDROOT
BRANCH   5  12
ATOM     12  C4  UNK A          39.607  15.183  -0.853  0.00  0.00     0.004 A 
ATOM     13  C10 UNK A          40.655  14.531  -0.203  0.00  0.00     0.053 A 
ATOM     14  C13 UNK A          40.548  13.178   0.112  0.00  0.00     0.099 A 
ATOM     15  C15 UNK A          39.392  12.473  -0.225  0.00  0.00     0.098 A 
ATOM     16  C14 UNK A          38.343  13.124  -0.875  0.00  0.00     0.040 A 
ATOM     17  C12 UNK A          38.450  14.478  -1.189  0.00  0.00     0.017 A 
BRANCH  14  18
ATOM     18  O6  UNK A          41.579  12.552   0.745  0.00  0.00    -0.358 OA
ATOM     19  H9  UNK A          42.190  12.181   0.089  0.00  0.00     0.217 HD
ENDBRANCH  14  18
BRANCH  15  20
ATOM     20  O7  UNK A          39.274  11.150   0.079  0.00  0.00    -0.358 OA
ATOM     21  H10 UNK A          39.577  10.614  -0.671  0.00  0.00     0.217 HD
ENDBRANCH  15  20
ENDBRANCH   5  12
BRANCH   6  22
ATOM     22  O2  UNK A          40.542  16.195  -3.394  0.00  0.00    -0.355 OA
ATOM     23  H6  UNK A          40.660  16.696  -4.218  0.00  0.00     0.218 HD
ENDBRANCH   6  22
BRANCH   8  24
ATOM     24  O3  UNK A          40.270  21.388  -2.797  0.00  0.00    -0.360 OA
ATOM     25  H7  UNK A          40.408  20.740  -3.505  0.00  0.00     0.217 HD
ENDBRANCH   8  24
BRANCH  10  26
ATOM     26  O5  UNK A          38.568  21.784   1.617  0.00  0.00    -0.361 OA
ATOM     27  H8  UNK A          37.596  21.824   1.621  0.00  0.00     0.217 HD
ENDBRANCH  10  26
TORSDOF 6
ENDMDL
MODEL 4
REMARK VINA RESULT:      -6.8     14.999     16.060
REMARK  6 active torsions:
REMARK  status: ('A' for Active; 'I' for Inactive)
REMARK    1  A    between atoms: O2_2  and  C5_12 
REMARK    2  A    between atoms: O3_3  and  C7_14 
REMARK    3  A    between atoms: O5_5  and  C9_16 
REMARK    4  A    between atoms: O6_6  and  C13_20 
REMARK    5  A    between atoms: O7_7  and  C15_22 
REMARK    6  A    between atoms: C3_10  and  C4_11 
ROOT
ATOM      1  O1  UNK A          43.595   1.876   7.560  0.00  0.00    -0.306 OA
ATOM      2  O4  UNK A          44.110   4.879  10.267  0.00  0.00    -0.284 OA
ATOM      3  C1  UNK A          45.065   3.494   8.614  0.00  0.00     0.084 A 
ATOM      4  C2  UNK A          44.825   2.463   7.708  0.00  0.00     0.096 A 
ATOM      5  C3  UNK A          42.543   2.338   8.335  0.00  0.00     0.123 A 
ATOM      6  C5  UNK A          42.644   3.319   9.251  0.00  0.00     0.152 A 
ATOM      7  C6  UNK A          43.957   3.980   9.450  0.00  0.00     0.223 A 
ATOM      8  C7  UNK A          46.341   4.053   8.723  0.00  0.00     0.085 A 
ATOM      9  C8  UNK A          45.861   1.983   6.906  0.00  0.00     0.075 A 
ATOM     10  C9  UNK A          47.136   2.539   7.012  0.00  0.00     0.071 A 
ATOM     11  C11 UNK A          47.375   3.572   7.920  0.00  0.00     0.074 A 
ENDROOT
BRANCH   5  12
ATOM     12  C4  UNK A          41.281   1.624   8.077  0.00  0.00     0.004 A 
ATOM     13  C10 UNK A          40.371   2.127   7.147  0.00  0.00     0.053 A 
ATOM     14  C13 UNK A          39.177   1.451   6.901  0.00  0.00     0.099 A 
ATOM     15  C15 UNK A          38.891   0.270   7.588  0.00  0.00     0.098 A 
ATOM     16  C14 UNK A          39.800  -0.233   8.518  0.00  0.00     0.040 A 
ATOM     17  C12 UNK A          40.995   0.443   8.763  0.00  0.00     0.017 A 
BRANCH  14  18
ATOM     18  O6  UNK A          38.296   1.952   5.992  0.00  0.00    -0.358 OA
ATOM     19  H9  UNK A          38.697   1.945   5.107  0.00  0.00     0.217 HD
ENDBRANCH  14  18
BRANCH  15  20
ATOM     20  O7  UNK A          37.728  -0.401   7.356  0.00  0.00    -0.358 OA
ATOM     21  H10 UNK A          37.033   0.227   7.103  0.00  0.00     0.217 HD
ENDBRANCH  15  20
ENDBRANCH   5  12
BRANCH   6  22
ATOM     22  O2  UNK A          41.586   3.734  10.030  0.00  0.00    -0.355 OA
ATOM     23  H6  UNK A          41.298   4.619   9.753  0.00  0.00     0.218 HD
ENDBRANCH   6  22
BRANCH   8  24
ATOM     24  O3  UNK A          46.629   5.062   9.593  0.00  0.00    -0.360 OA
ATOM     25  H7  UNK A          46.478   4.777  10.507  0.00  0.00     0.217 HD
ENDBRANCH   8  24
BRANCH  10  26
ATOM     26  O5  UNK A          48.147   2.073   6.231  0.00  0.00    -0.361 OA
ATOM     27  H8  UNK A          47.915   2.212   5.296  0.00  0.00     0.217 HD
ENDBRANCH  10  26
TORSDOF 6
ENDMDL
MODEL 5
REMARK VINA RESULT:      -6.7      1.875      2.665
REMARK  6 active torsions:
REMARK  status: ('A' for Active; 'I' for Inactive)
REMARK    1  A    between atoms: O2_2  and  C5_12 
REMARK    2  A    between atoms: O3_3  and  C7_14 
REMARK    3  A    between atoms: O5_5  and  C9_16 
REMARK    4  A    between atoms: O6_6  and  C13_20 
REMARK    5  A    between atoms: O7_7  and  C15_22 
REMARK    6  A    between atoms: C3_10  and  C4_11 
ROOT
ATOM      1  O1  UNK A          39.400  16.345  -0.219  0.00  0.00    -0.306 OA
ATOM      2  O4  UNK A          40.595  18.769  -3.270  0.00  0.00    -0.284 OA
ATOM      3  C1  UNK A          39.423  18.549  -1.235  0.00  0.00     0.084 A 
ATOM      4  C2  UNK A          39.046  17.669  -0.223  0.00  0.00     0.096 A 
ATOM      5  C3  UNK A          40.179  15.866  -1.261  0.00  0.00     0.123 A 
ATOM      6  C5  UNK A          40.602  16.607  -2.301  0.00  0.00     0.152 A 
ATOM      7  C6  UNK A          40.238  18.044  -2.350  0.00  0.00     0.223 A 
ATOM      8  C7  UNK A          39.031  19.889  -1.186  0.00  0.00     0.085 A 
ATOM      9  C8  UNK A          38.271  18.124   0.845  0.00  0.00     0.075 A 
ATOM     10  C9  UNK A          37.877  19.461   0.897  0.00  0.00     0.071 A 
ATOM     11  C11 UNK A          38.257  20.341  -0.117  0.00  0.00     0.074 A 
ENDROOT
BRANCH   5  12
ATOM     12  C4  UNK A          40.488  14.431  -1.135  0.00  0.00     0.004 A 
ATOM     13  C10 UNK A          39.611  13.583  -0.458  0.00  0.00     0.053 A 
ATOM     14  C13 UNK A          39.903  12.225  -0.340  0.00  0.00     0.099 A 
ATOM     15  C15 UNK A          41.075  11.713  -0.898  0.00  0.00     0.098 A 
ATOM     16  C14 UNK A          41.953  12.559  -1.575  0.00  0.00     0.040 A 
ATOM     17  C12 UNK A          41.660  13.918  -1.694  0.00  0.00     0.017 A 
BRANCH  14  18
ATOM     18  O6  UNK A          39.039  11.408   0.325  0.00  0.00    -0.358 OA
ATOM     19  H9  UNK A          39.428  11.141   1.174  0.00  0.00     0.217 HD
ENDBRANCH  14  18
BRANCH  15  20
ATOM     20  O7  UNK A          41.371  10.388  -0.791  0.00  0.00    -0.358 OA
ATOM     21  H10 UNK A          41.179  10.081   0.110  0.00  0.00     0.217 HD
ENDBRANCH  15  20
ENDBRANCH   5  12
BRANCH   6  22
ATOM     22  O2  UNK A          41.348  16.092  -3.339  0.00  0.00    -0.355 OA
ATOM     23  H6  UNK A          40.834  15.417  -3.812  0.00  0.00     0.218 HD
ENDBRANCH   6  22
BRANCH   8  24
ATOM     24  O3  UNK A          39.373  20.791  -2.149  0.00  0.00    -0.360 OA
ATOM     25  H7  UNK A          38.627  20.949  -2.747  0.00  0.00     0.217 HD
ENDBRANCH   8  24
BRANCH  10  26
ATOM     26  O5  UNK A          37.122  19.907   1.937  0.00  0.00    -0.361 OA
ATOM     27  H8  UNK A          36.181  19.798   1.714  0.00  0.00     0.217 HD
ENDBRANCH  10  26
TORSDOF 6
ENDMDL
MODEL 6
REMARK VINA RESULT:      -6.6     14.841     15.591
REMARK  6 active torsions:
REMARK  status: ('A' for Active; 'I' for Inactive)
REMARK    1  A    between atoms: O2_2  and  C5_12 
REMARK    2  A    between atoms: O3_3  and  C7_14 
REMARK    3  A    between atoms: O5_5  and  C9_16 
REMARK    4  A    between atoms: O6_6  and  C13_20 
REMARK    5  A    between atoms: O7_7  and  C15_22 
REMARK    6  A    between atoms: C3_10  and  C4_11 
ROOT
ATOM      1  O1  UNK A          42.424   3.345   9.032  0.00  0.00    -0.306 OA
ATOM      2  O4  UNK A          46.043   2.339   7.451  0.00  0.00    -0.284 OA
ATOM      3  C1  UNK A          44.796   3.808   8.810  0.00  0.00     0.084 A 
ATOM      4  C2  UNK A          43.531   4.099   9.318  0.00  0.00     0.096 A 
ATOM      5  C3  UNK A          42.572   2.236   8.212  0.00  0.00     0.123 A 
ATOM      6  C5  UNK A          43.733   1.851   7.652  0.00  0.00     0.152 A 
ATOM      7  C6  UNK A          44.958   2.641   7.930  0.00  0.00     0.223 A 
ATOM      8  C7  UNK A          45.889   4.614   9.136  0.00  0.00     0.085 A 
ATOM      9  C8  UNK A          43.352   5.202  10.154  0.00  0.00     0.075 A 
ATOM     10  C9  UNK A          44.442   6.010  10.481  0.00  0.00     0.071 A 
ATOM     11  C11 UNK A          45.708   5.715   9.972  0.00  0.00     0.074 A 
ENDROOT
BRANCH   5  12
ATOM     12  C4  UNK A          41.307   1.515   7.986  0.00  0.00     0.004 A 
ATOM     13  C10 UNK A          40.353   2.034   7.110  0.00  0.00     0.053 A 
ATOM     14  C13 UNK A          39.157   1.351   6.895  0.00  0.00     0.099 A 
ATOM     15  C15 UNK A          38.913   0.148   7.558  0.00  0.00     0.098 A 
ATOM     16  C14 UNK A          39.865  -0.372   8.434  0.00  0.00     0.040 A 
ATOM     17  C12 UNK A          41.063   0.312   8.649  0.00  0.00     0.017 A 
BRANCH  14  18
ATOM     18  O6  UNK A          38.234   1.868   6.038  0.00  0.00    -0.358 OA
ATOM     19  H9  UNK A          38.640   2.020   5.170  0.00  0.00     0.217 HD
ENDBRANCH  14  18
BRANCH  15  20
ATOM     20  O7  UNK A          37.748  -0.530   7.355  0.00  0.00    -0.358 OA
ATOM     21  H10 UNK A          37.092   0.061   6.954  0.00  0.00     0.217 HD
ENDBRANCH  15  20
ENDBRANCH   5  12
BRANCH   6  22
ATOM     22  O2  UNK A          43.841   0.762   6.815  0.00  0.00    -0.355 OA
ATOM     23  H6  UNK A          43.307   0.906   6.016  0.00  0.00     0.218 HD
ENDBRANCH   6  22
BRANCH   8  24
ATOM     24  O3  UNK A          47.146   4.373   8.667  0.00  0.00    -0.360 OA
ATOM     25  H7  UNK A          47.659   5.194   8.632  0.00  0.00     0.217 HD
ENDBRANCH   8  24
BRANCH  10  26
ATOM     26  O5  UNK A          44.269   7.085  11.296  0.00  0.00    -0.361 OA
ATOM     27  H8  UNK A          44.139   6.773  12.208  0.00  0.00     0.217 HD
ENDBRANCH  10  26
TORSDOF 6
ENDMDL
MODEL 7
REMARK VINA RESULT:      -6.5     15.117     18.071
REMARK  6 active torsions:
REMARK  status: ('A' for Active; 'I' for Inactive)
REMARK    1  A    between atoms: O2_2  and  C5_12 
REMARK    2  A    between atoms: O3_3  and  C7_14 
REMARK    3  A    between atoms: O5_5  and  C9_16 
REMARK    4  A    between atoms: O6_6  and  C13_20 
REMARK    5  A    between atoms: O7_7  and  C15_22 
REMARK    6  A    between atoms: C3_10  and  C4_11 
ROOT
ATOM      1  O1  UNK A          39.709   0.367   8.618  0.00  0.00    -0.306 OA
ATOM      2  O4  UNK A          43.446  -0.768   9.781  0.00  0.00    -0.284 OA
ATOM      3  C1  UNK A          41.879   0.975   9.519  0.00  0.00     0.084 A 
ATOM      4  C2  UNK A          40.589   1.299   9.104  0.00  0.00     0.096 A 
ATOM      5  C3  UNK A          40.117  -0.956   8.550  0.00  0.00     0.123 A 
ATOM      6  C5  UNK A          41.336  -1.398   8.910  0.00  0.00     0.152 A 
ATOM      7  C6  UNK A          42.323  -0.425   9.436  0.00  0.00     0.223 A 
ATOM      8  C7  UNK A          42.734   1.968  10.004  0.00  0.00     0.085 A 
ATOM      9  C8  UNK A          40.146   2.620   9.170  0.00  0.00     0.075 A 
ATOM     10  C9  UNK A          40.996   3.615   9.654  0.00  0.00     0.071 A 
ATOM     11  C11 UNK A          42.288   3.288  10.070  0.00  0.00     0.074 A 
ENDROOT
BRANCH   5  12
ATOM     12  C4  UNK A          39.077  -1.851   8.012  0.00  0.00     0.004 A 
ATOM     13  C10 UNK A          39.362  -2.680   6.926  0.00  0.00     0.053 A 
ATOM     14  C13 UNK A          38.379  -3.527   6.418  0.00  0.00     0.099 A 
ATOM     15  C15 UNK A          37.108  -3.546   6.994  0.00  0.00     0.098 A 
ATOM     16  C14 UNK A          36.823  -2.718   8.079  0.00  0.00     0.040 A 
ATOM     17  C12 UNK A          37.807  -1.870   8.588  0.00  0.00     0.017 A 
BRANCH  14  18
ATOM     18  O6  UNK A          38.669  -4.331   5.357  0.00  0.00    -0.358 OA
ATOM     19  H9  UNK A          37.940  -4.956   5.210  0.00  0.00     0.217 HD
ENDBRANCH  14  18
BRANCH  15  20
ATOM     20  O7  UNK A          36.140  -4.371   6.507  0.00  0.00    -0.358 OA
ATOM     21  H10 UNK A          35.332  -4.275   7.035  0.00  0.00     0.217 HD
ENDBRANCH  15  20
ENDBRANCH   5  12
BRANCH   6  22
ATOM     22  O2  UNK A          41.721  -2.716   8.799  0.00  0.00    -0.355 OA
ATOM     23  H6  UNK A          41.080  -3.203   8.256  0.00  0.00     0.218 HD
ENDBRANCH   6  22
BRANCH   8  24
ATOM     24  O3  UNK A          44.004   1.704  10.422  0.00  0.00    -0.360 OA
ATOM     25  H7  UNK A          44.133   2.012  11.332  0.00  0.00     0.217 HD
ENDBRANCH   8  24
BRANCH  10  26
ATOM     26  O5  UNK A          40.566   4.903   9.720  0.00  0.00    -0.361 OA
ATOM     27  H8  UNK A          40.797   5.270  10.591  0.00  0.00     0.217 HD
ENDBRANCH  10  26
TORSDOF 6
ENDMDL
MODEL 8
REMARK VINA RESULT:      -6.5     13.384     15.517
REMARK  6 active torsions:
REMARK  status: ('A' for Active; 'I' for Inactive)
REMARK    1  A    between atoms: O2_2  and  C5_12 
REMARK    2  A    between atoms: O3_3  and  C7_14 
REMARK    3  A    between atoms: O5_5  and  C9_16 
REMARK    4  A    between atoms: O6_6  and  C13_20 
REMARK    5  A    between atoms: O7_7  and  C15_22 
REMARK    6  A    between atoms: C3_10  and  C4_11 
ROOT
ATOM      1  O1  UNK A          42.370  21.260  12.003  0.00  0.00    -0.306 OA
ATOM      2  O4  UNK A          45.615  18.967  11.094  0.00  0.00    -0.284 OA
ATOM      3  C1  UNK A          43.388  19.061  11.864  0.00  0.00     0.084 A 
ATOM      4  C2  UNK A          42.314  19.900  12.158  0.00  0.00     0.096 A 
ATOM      5  C3  UNK A          43.541  21.824  11.520  0.00  0.00     0.123 A 
ATOM      6  C5  UNK A          44.650  21.128  11.207  0.00  0.00     0.152 A 
ATOM      7  C6  UNK A          44.637  19.653  11.364  0.00  0.00     0.223 A 
ATOM      8  C7  UNK A          43.273  17.680  12.043  0.00  0.00     0.085 A 
ATOM      9  C8  UNK A          41.119  19.362  12.636  0.00  0.00     0.075 A 
ATOM     10  C9  UNK A          41.000  17.983  12.816  0.00  0.00     0.071 A 
ATOM     11  C11 UNK A          42.076  17.145  12.520  0.00  0.00     0.074 A 
ENDROOT
BRANCH   5  12
ATOM     12  C4  UNK A          43.468  23.290  11.401  0.00  0.00     0.004 A 
ATOM     13  C10 UNK A          43.677  23.903  10.165  0.00  0.00     0.053 A 
ATOM     14  C13 UNK A          43.606  25.290  10.052  0.00  0.00     0.099 A 
ATOM     15  C15 UNK A          43.327  26.068  11.177  0.00  0.00     0.098 A 
ATOM     16  C14 UNK A          43.117  25.456  12.413  0.00  0.00     0.040 A 
ATOM     17  C12 UNK A          43.187  24.068  12.525  0.00  0.00     0.017 A 
BRANCH  14  18
ATOM     18  O6  UNK A          43.814  25.877   8.841  0.00  0.00    -0.358 OA
ATOM     19  H9  UNK A          44.089  26.800   8.966  0.00  0.00     0.217 HD
ENDBRANCH  14  18
BRANCH  15  20
ATOM     20  O7  UNK A          43.253  27.425  11.079  0.00  0.00    -0.358 OA
ATOM     21  H10 UNK A          43.738  27.723  10.294  0.00  0.00     0.217 HD
ENDBRANCH  15  20
ENDBRANCH   5  12
BRANCH   6  22
ATOM     22  O2  UNK A          45.810  21.722  10.760  0.00  0.00    -0.355 OA
ATOM     23  H6  UNK A          45.652  22.664  10.583  0.00  0.00     0.218 HD
ENDBRANCH   6  22
BRANCH   8  24
ATOM     24  O3  UNK A          44.291  16.817  11.770  0.00  0.00    -0.360 OA
ATOM     25  H7  UNK A          44.482  16.804  10.820  0.00  0.00     0.217 HD
ENDBRANCH   8  24
BRANCH  10  26
ATOM     26  O5  UNK A          39.836  17.457  13.281  0.00  0.00    -0.361 OA
ATOM     27  H8  UNK A          39.126  18.112  13.170  0.00  0.00     0.217 HD
ENDBRANCH  10  26
TORSDOF 6
ENDMDL
MODEL 9
REMARK VINA RESULT:      -6.4     13.141     15.691
REMARK  6 active torsions:
REMARK  status: ('A' for Active; 'I' for Inactive)
REMARK    1  A    between atoms: O2_2  and  C5_12 
REMARK    2  A    between atoms: O3_3  and  C7_14 
REMARK    3  A    between atoms: O5_5  and  C9_16 
REMARK    4  A    between atoms: O6_6  and  C13_20 
REMARK    5  A    between atoms: O7_7  and  C15_22 
REMARK    6  A    between atoms: C3_10  and  C4_11 
ROOT
ATOM      1  O1  UNK A          44.486  21.306  11.719  0.00  0.00    -0.306 OA
ATOM      2  O4  UNK A          41.212  18.906  11.358  0.00  0.00    -0.284 OA
ATOM      3  C1  UNK A          43.533  19.074  11.738  0.00  0.00     0.084 A 
ATOM      4  C2  UNK A          44.613  19.948  11.849  0.00  0.00     0.096 A 
ATOM      5  C3  UNK A          43.226  21.834  11.480  0.00  0.00     0.123 A 
ATOM      6  C5  UNK A          42.106  21.100  11.343  0.00  0.00     0.152 A 
ATOM      7  C6  UNK A          42.196  19.626  11.471  0.00  0.00     0.223 A 
ATOM      8  C7  UNK A          43.724  17.697  11.878  0.00  0.00     0.085 A 
ATOM      9  C8  UNK A          45.892  19.449  12.099  0.00  0.00     0.075 A 
ATOM     10  C9  UNK A          46.086  18.075  12.240  0.00  0.00     0.071 A 
ATOM     11  C11 UNK A          45.003  17.201  12.129  0.00  0.00     0.074 A 
ENDROOT
BRANCH   5  12
ATOM     12  C4  UNK A          43.230  23.302  11.362  0.00  0.00     0.004 A 
ATOM     13  C10 UNK A          43.534  23.905  10.142  0.00  0.00     0.053 A 
ATOM     14  C13 UNK A          43.536  25.295  10.030  0.00  0.00     0.099 A 
ATOM     15  C15 UNK A          43.235  26.083  11.142  0.00  0.00     0.098 A 
ATOM     16  C14 UNK A          42.931  25.482  12.362  0.00  0.00     0.040 A 
ATOM     17  C12 UNK A          42.928  24.091  12.473  0.00  0.00     0.017 A 
BRANCH  14  18
ATOM     18  O6  UNK A          43.835  25.872   8.834  0.00  0.00    -0.358 OA
ATOM     19  H9  UNK A          44.798  25.879   8.705  0.00  0.00     0.217 HD
ENDBRANCH  14  18
BRANCH  15  20
ATOM     20  O7  UNK A          43.232  27.443  11.045  0.00  0.00    -0.358 OA
ATOM     21  H10 UNK A          43.802  27.720  10.310  0.00  0.00     0.217 HD
ENDBRANCH  15  20
ENDBRANCH   5  12
BRANCH   6  22
ATOM     22  O2  UNK A          40.873  21.653  11.073  0.00  0.00    -0.355 OA
ATOM     23  H6  UNK A          40.271  21.497  11.819  0.00  0.00     0.218 HD
ENDBRANCH   6  22
BRANCH   8  24
ATOM     24  O3  UNK A          42.702  16.801  11.779  0.00  0.00    -0.360 OA
ATOM     25  H7  UNK A          42.201  16.945  10.962  0.00  0.00     0.217 HD
ENDBRANCH   8  24
BRANCH  10  26
ATOM     26  O5  UNK A          47.331  17.586  12.485  0.00  0.00    -0.361 OA
ATOM     27  H8  UNK A          47.989  18.264  12.252  0.00  0.00     0.217 HD
ENDBRANCH  10  26
TORSDOF 6
ENDMDL
MODEL 10
REMARK VINA RESULT:      -6.4     24.960     28.226
REMARK  6 active torsions:
REMARK  status: ('A' for Active; 'I' for Inactive)
REMARK    1  A    between atoms: O2_2  and  C5_12 
REMARK    2  A    between atoms: O3_3  and  C7_14 
REMARK    3  A    between atoms: O5_5  and  C9_16 
REMARK    4  A    between atoms: O6_6  and  C13_20 
REMARK    5  A    between atoms: O7_7  and  C15_22 
REMARK    6  A    between atoms: C3_10  and  C4_11 
ROOT
ATOM      1  O1  UNK A          47.998 -11.180  -3.986  0.00  0.00    -0.306 OA
ATOM      2  O4  UNK A          50.538 -12.338  -6.955  0.00  0.00    -0.284 OA
ATOM      3  C1  UNK A          49.836 -10.641  -5.476  0.00  0.00     0.084 A 
ATOM      4  C2  UNK A          48.938 -10.306  -4.464  0.00  0.00     0.096 A 
ATOM      5  C3  UNK A          47.947 -12.457  -4.524  0.00  0.00     0.123 A 
ATOM      6  C5  UNK A          48.749 -12.902  -5.508  0.00  0.00     0.152 A 
ATOM      7  C6  UNK A          49.778 -11.989  -6.060  0.00  0.00     0.223 A 
ATOM      8  C7  UNK A          50.773  -9.707  -5.925  0.00  0.00     0.085 A 
ATOM      9  C8  UNK A          48.971  -9.031  -3.896  0.00  0.00     0.075 A 
ATOM     10  C9  UNK A          49.905  -8.096  -4.342  0.00  0.00     0.071 A 
ATOM     11  C11 UNK A          50.804  -8.434  -5.355  0.00  0.00     0.074 A 
ENDROOT
BRANCH   5  12
ATOM     12  C4  UNK A          46.894 -13.293  -3.921  0.00  0.00     0.004 A 
ATOM     13  C10 UNK A          45.611 -13.306  -4.471  0.00  0.00     0.053 A 
ATOM     14  C13 UNK A          44.616 -14.098  -3.902  0.00  0.00     0.099 A 
ATOM     15  C15 UNK A          44.901 -14.878  -2.780  0.00  0.00     0.098 A 
ATOM     16  C14 UNK A          46.182 -14.865  -2.230  0.00  0.00     0.040 A 
ATOM     17  C12 UNK A          47.179 -14.073  -2.800  0.00  0.00     0.017 A 
BRANCH  14  18
ATOM     18  O6  UNK A          43.368 -14.102  -4.446  0.00  0.00    -0.358 OA
ATOM     19  H9  UNK A          43.359 -14.655  -5.245  0.00  0.00     0.217 HD
ENDBRANCH  14  18
BRANCH  15  20
ATOM     20  O7  UNK A          43.937 -15.657  -2.216  0.00  0.00    -0.358 OA
ATOM     21  H10 UNK A          43.325 -15.103  -1.706  0.00  0.00     0.217 HD
ENDBRANCH  15  20
ENDBRANCH   5  12
BRANCH   6  22
ATOM     22  O2  UNK A          48.651 -14.168  -6.044  0.00  0.00    -0.355 OA
ATOM     23  H6  UNK A          49.502 -14.430  -6.431  0.00  0.00     0.218 HD
ENDBRANCH   6  22
BRANCH   8  24
ATOM     24  O3  UNK A          51.672  -9.983  -6.911  0.00  0.00    -0.360 OA
ATOM     25  H7  UNK A          52.226 -10.739  -6.663  0.00  0.00     0.217 HD
ENDBRANCH   8  24
BRANCH  10  26
ATOM     26  O5  UNK A          49.939  -6.854  -3.789  0.00  0.00    -0.361 OA
ATOM     27  H8  UNK A          50.343  -6.237  -4.423  0.00  0.00     0.217 HD
ENDBRANCH  10  26
TORSDOF 6
ENDMDL
MODEL 11
REMARK VINA RESULT:      -6.4     15.987     18.382
REMARK  6 active torsions:
REMARK  status: ('A' for Active; 'I' for Inactive)
REMARK    1  A    between atoms: O2_2  and  C5_12 
REMARK    2  A    between atoms: O3_3  and  C7_14 
REMARK    3  A    between atoms: O5_5  and  C9_16 
REMARK    4  A    between atoms: O6_6  and  C13_20 
REMARK    5  A    between atoms: O7_7  and  C15_22 
REMARK    6  A    between atoms: C3_10  and  C4_11 
ROOT
ATOM      1  O1  UNK A          45.244   0.180   9.937  0.00  0.00    -0.306 OA
ATOM      2  O4  UNK A          44.417   2.237   6.517  0.00  0.00    -0.284 OA
ATOM      3  C1  UNK A          46.030   1.554   8.097  0.00  0.00     0.084 A 
ATOM      4  C2  UNK A          46.247   0.835   9.270  0.00  0.00     0.096 A 
ATOM      5  C3  UNK A          43.961   0.225   9.412  0.00  0.00     0.123 A 
ATOM      6  C5  UNK A          43.618   0.889   8.293  0.00  0.00     0.152 A 
ATOM      7  C6  UNK A          44.669   1.617   7.542  0.00  0.00     0.223 A 
ATOM      8  C7  UNK A          47.091   2.203   7.461  0.00  0.00     0.085 A 
ATOM      9  C8  UNK A          47.528   0.763   9.818  0.00  0.00     0.075 A 
ATOM     10  C9  UNK A          48.591   1.410   9.186  0.00  0.00     0.071 A 
ATOM     11  C11 UNK A          48.371   2.129   8.010  0.00  0.00     0.074 A 
ENDROOT
BRANCH   5  12
ATOM     12  C4  UNK A          42.982  -0.518  10.224  0.00  0.00     0.004 A 
ATOM     13  C10 UNK A          42.625  -1.820   9.869  0.00  0.00     0.053 A 
ATOM     14  C13 UNK A          41.699  -2.523  10.638  0.00  0.00     0.099 A 
ATOM     15  C15 UNK A          41.127  -1.925  11.762  0.00  0.00     0.098 A 
ATOM     16  C14 UNK A          41.483  -0.624  12.116  0.00  0.00     0.040 A 
ATOM     17  C12 UNK A          42.411   0.080  11.348  0.00  0.00     0.017 A 
BRANCH  14  18
ATOM     18  O6  UNK A          41.357  -3.793  10.282  0.00  0.00    -0.358 OA
ATOM     19  H9  UNK A          40.408  -3.931  10.429  0.00  0.00     0.217 HD
ENDBRANCH  14  18
BRANCH  15  20
ATOM     20  O7  UNK A          40.222  -2.603  12.522  0.00  0.00    -0.358 OA
ATOM     21  H10 UNK A          39.353  -2.583  12.091  0.00  0.00     0.217 HD
ENDBRANCH  15  20
ENDBRANCH   5  12
BRANCH   6  22
ATOM     22  O2  UNK A          42.326   0.941   7.816  0.00  0.00    -0.355 OA
ATOM     23  H6  UNK A          42.161   1.805   7.404  0.00  0.00     0.218 HD
ENDBRANCH   6  22
BRANCH   8  24
ATOM     24  O3  UNK A          46.933   2.919   6.312  0.00  0.00    -0.360 OA
ATOM     25  H7  UNK A          47.794   3.126   5.919  0.00  0.00     0.217 HD
ENDBRANCH   8  24
BRANCH  10  26
ATOM     26  O5  UNK A          49.841   1.340   9.717  0.00  0.00    -0.361 OA
ATOM     27  H8  UNK A          49.999   0.435  10.035  0.00  0.00     0.217 HD
ENDBRANCH  10  26
TORSDOF 6
ENDMDL
MODEL 12
REMARK VINA RESULT:      -6.4     15.371     17.327
REMARK  6 active torsions:
REMARK  status: ('A' for Active; 'I' for Inactive)
REMARK    1  A    between atoms: O2_2  and  C5_12 
REMARK    2  A    between atoms: O3_3  and  C7_14 
REMARK    3  A    between atoms: O5_5  and  C9_16 
REMARK    4  A    between atoms: O6_6  and  C13_20 
REMARK    5  A    between atoms: O7_7  and  C15_22 
REMARK    6  A    between atoms: C3_10  and  C4_11 
ROOT
ATOM      1  O1  UNK A          44.212   1.638   7.540  0.00  0.00    -0.306 OA
ATOM      2  O4  UNK A          45.736   0.791  11.223  0.00  0.00    -0.284 OA
ATOM      3  C1  UNK A          46.136   1.511   9.014  0.00  0.00     0.084 A 
ATOM      4  C2  UNK A          45.553   1.783   7.777  0.00  0.00     0.096 A 
ATOM      5  C3  UNK A          43.397   1.216   8.579  0.00  0.00     0.123 A 
ATOM      6  C5  UNK A          43.834   0.913   9.816  0.00  0.00     0.152 A 
ATOM      7  C6  UNK A          45.280   1.050  10.117  0.00  0.00     0.223 A 
ATOM      8  C7  UNK A          47.511   1.676   9.196  0.00  0.00     0.085 A 
ATOM      9  C8  UNK A          46.345   2.220   6.714  0.00  0.00     0.075 A 
ATOM     10  C9  UNK A          47.718   2.386   6.893  0.00  0.00     0.071 A 
ATOM     11  C11 UNK A          48.299   2.114   8.132  0.00  0.00     0.074 A 
ENDROOT
BRANCH   5  12
ATOM     12  C4  UNK A          41.981   1.103   8.191  0.00  0.00     0.004 A 
ATOM     13  C10 UNK A          41.323  -0.124   8.295  0.00  0.00     0.053 A 
ATOM     14  C13 UNK A          39.982  -0.230   7.929  0.00  0.00     0.099 A 
ATOM     15  C15 UNK A          39.297   0.890   7.456  0.00  0.00     0.098 A 
ATOM     16  C14 UNK A          39.954   2.117   7.353  0.00  0.00     0.040 A 
ATOM     17  C12 UNK A          41.295   2.223   7.720  0.00  0.00     0.017 A 
BRANCH  14  18
ATOM     18  O6  UNK A          39.352  -1.432   8.033  0.00  0.00    -0.358 OA
ATOM     19  H9  UNK A          39.582  -1.852   8.878  0.00  0.00     0.217 HD
ENDBRANCH  14  18
BRANCH  15  20
ATOM     20  O7  UNK A          37.986   0.799   7.097  0.00  0.00    -0.358 OA
ATOM     21  H10 UNK A          37.679   1.656   6.760  0.00  0.00     0.217 HD
ENDBRANCH  15  20
ENDBRANCH   5  12
BRANCH   6  22
ATOM     22  O2  UNK A          43.003   0.464  10.819  0.00  0.00    -0.355 OA
ATOM     23  H6  UNK A          43.275   0.847  11.669  0.00  0.00     0.218 HD
ENDBRANCH   6  22
BRANCH   8  24
ATOM     24  O3  UNK A          48.129   1.424  10.384  0.00  0.00    -0.360 OA
ATOM     25  H7  UNK A          47.883   2.090  11.044  0.00  0.00     0.217 HD
ENDBRANCH   8  24
BRANCH  10  26
ATOM     26  O5  UNK A          48.492   2.812   5.858  0.00  0.00    -0.361 OA
ATOM     27  H8  UNK A          48.242   2.323   5.055  0.00  0.00     0.217 HD
ENDBRANCH  10  26
TORSDOF 6
ENDMDL
MODEL 13
REMARK VINA RESULT:      -6.3     12.811     15.887
REMARK  6 active torsions:
REMARK  status: ('A' for Active; 'I' for Inactive)
REMARK    1  A    between atoms: O2_2  and  C5_12 
REMARK    2  A    between atoms: O3_3  and  C7_14 
REMARK    3  A    between atoms: O5_5  and  C9_16 
REMARK    4  A    between atoms: O6_6  and  C13_20 
REMARK    5  A    between atoms: O7_7  and  C15_22 
REMARK    6  A    between atoms: C3_10  and  C4_11 
ROOT
ATOM      1  O1  UNK A          38.861  22.094  11.041  0.00  0.00    -0.306 OA
ATOM      2  O4  UNK A          37.711  19.644  14.088  0.00  0.00    -0.284 OA
ATOM      3  C1  UNK A          39.289  20.133  12.405  0.00  0.00     0.084 A 
ATOM      4  C2  UNK A          39.627  21.007  11.374  0.00  0.00     0.096 A 
ATOM      5  C3  UNK A          37.709  22.340  11.771  0.00  0.00     0.123 A 
ATOM      6  C5  UNK A          37.268  21.570  12.783  0.00  0.00     0.152 A 
ATOM      7  C6  UNK A          38.061  20.381  13.175  0.00  0.00     0.223 A 
ATOM      8  C7  UNK A          40.108  19.039  12.698  0.00  0.00     0.085 A 
ATOM      9  C8  UNK A          40.786  20.791  10.627  0.00  0.00     0.075 A 
ATOM     10  C9  UNK A          41.606  19.701  10.917  0.00  0.00     0.071 A 
ATOM     11  C11 UNK A          41.267  18.827  11.951  0.00  0.00     0.074 A 
ENDROOT
BRANCH   5  12
ATOM     12  C4  UNK A          36.981  23.536  11.311  0.00  0.00     0.004 A 
ATOM     13  C10 UNK A          37.289  24.789  11.842  0.00  0.00     0.053 A 
ATOM     14  C13 UNK A          36.602  25.921  11.406  0.00  0.00     0.099 A 
ATOM     15  C15 UNK A          35.603  25.800  10.439  0.00  0.00     0.098 A 
ATOM     16  C14 UNK A          35.294  24.548   9.908  0.00  0.00     0.040 A 
ATOM     17  C12 UNK A          35.983  23.416  10.344  0.00  0.00     0.017 A 
BRANCH  14  18
ATOM     18  O6  UNK A          36.911  27.138  11.933  0.00  0.00    -0.358 OA
ATOM     19  H9  UNK A          36.652  27.839  11.313  0.00  0.00     0.217 HD
ENDBRANCH  14  18
BRANCH  15  20
ATOM     20  O7  UNK A          34.925  26.899  10.004  0.00  0.00    -0.358 OA
ATOM     21  H10 UNK A          34.435  27.295  10.742  0.00  0.00     0.217 HD
ENDBRANCH  15  20
ENDBRANCH   5  12
BRANCH   6  22
ATOM     22  O2  UNK A          36.099  21.825  13.468  0.00  0.00    -0.355 OA
ATOM     23  H6  UNK A          35.378  21.289  13.100  0.00  0.00     0.218 HD
ENDBRANCH   6  22
BRANCH   8  24
ATOM     24  O3  UNK A          39.824  18.155  13.695  0.00  0.00    -0.360 OA
ATOM     25  H7  UNK A          40.440  18.266  14.435  0.00  0.00     0.217 HD
ENDBRANCH   8  24
BRANCH  10  26
ATOM     26  O5  UNK A          42.737  19.489  10.191  0.00  0.00    -0.361 OA
ATOM     27  H8  UNK A          42.494  19.094   9.336  0.00  0.00     0.217 HD
ENDBRANCH  10  26
TORSDOF 6
ENDMDL
MODEL 14
REMARK VINA RESULT:      -6.3     10.374     11.993
REMARK  6 active torsions:
REMARK  status: ('A' for Active; 'I' for Inactive)
REMARK    1  A    between atoms: O2_2  and  C5_12 
REMARK    2  A    between atoms: O3_3  and  C7_14 
REMARK    3  A    between atoms: O5_5  and  C9_16 
REMARK    4  A    between atoms: O6_6  and  C13_20 
REMARK    5  A    between atoms: O7_7  and  C15_22 
REMARK    6  A    between atoms: C3_10  and  C4_11 
ROOT
ATOM      1  O1  UNK A          46.367  11.223  -7.898  0.00  0.00    -0.306 OA
ATOM      2  O4  UNK A          47.938   7.639  -9.037  0.00  0.00    -0.284 OA
ATOM      3  C1  UNK A          46.072   9.079  -8.998  0.00  0.00     0.084 A 
ATOM      4  C2  UNK A          45.594  10.320  -8.580  0.00  0.00     0.096 A 
ATOM      5  C3  UNK A          47.685  10.892  -7.625  0.00  0.00     0.123 A 
ATOM      6  C5  UNK A          48.265   9.726  -7.965  0.00  0.00     0.152 A 
ATOM      7  C6  UNK A          47.465   8.716  -8.699  0.00  0.00     0.223 A 
ATOM      8  C7  UNK A          45.236   8.198  -9.688  0.00  0.00     0.085 A 
ATOM      9  C8  UNK A          44.274  10.686  -8.849  0.00  0.00     0.075 A 
ATOM     10  C9  UNK A          43.437   9.809  -9.539  0.00  0.00     0.071 A 
ATOM     11  C11 UNK A          43.918   8.568  -9.957  0.00  0.00     0.074 A 
ENDROOT
BRANCH   5  12
ATOM     12  C4  UNK A          48.403  11.948  -6.890  0.00  0.00     0.004 A 
ATOM     13  C10 UNK A          48.317  12.014  -5.499  0.00  0.00     0.053 A 
ATOM     14  C13 UNK A          48.997  13.012  -4.804  0.00  0.00     0.099 A 
ATOM     15  C15 UNK A          49.764  13.948  -5.499  0.00  0.00     0.098 A 
ATOM     16  C14 UNK A          49.851  13.883  -6.890  0.00  0.00     0.040 A 
ATOM     17  C12 UNK A          49.171  12.883  -7.585  0.00  0.00     0.017 A 
BRANCH  14  18
ATOM     18  O6  UNK A          48.904  13.067  -3.446  0.00  0.00    -0.358 OA
ATOM     19  H9  UNK A          49.684  13.516  -3.081  0.00  0.00     0.217 HD
ENDBRANCH  14  18
BRANCH  15  20
ATOM     20  O7  UNK A          50.434  14.927  -4.831  0.00  0.00    -0.358 OA
ATOM     21  H10 UNK A          51.378  14.708  -4.788  0.00  0.00     0.217 HD
ENDBRANCH  15  20
ENDBRANCH   5  12
BRANCH   6  22
ATOM     22  O2  UNK A          49.570   9.414  -7.649  0.00  0.00    -0.355 OA
ATOM     23  H6  UNK A          50.173  10.044  -8.077  0.00  0.00     0.218 HD
ENDBRANCH   6  22
BRANCH   8  24
ATOM     24  O3  UNK A          45.653   6.975 -10.119  0.00  0.00    -0.360 OA
ATOM     25  H7  UNK A          45.224   6.744 -10.957  0.00  0.00     0.217 HD
ENDBRANCH   8  24
BRANCH  10  26
ATOM     26  O5  UNK A          42.151  10.165  -9.802  0.00  0.00    -0.361 OA
ATOM     27  H8  UNK A          42.146  10.831 -10.511  0.00  0.00     0.217 HD
ENDBRANCH  10  26
TORSDOF 6
ENDMDL
MODEL 15
REMARK VINA RESULT:      -6.3     21.789     25.938
REMARK  6 active torsions:
REMARK  status: ('A' for Active; 'I' for Inactive)
REMARK    1  A    between atoms: O2_2  and  C5_12 
REMARK    2  A    between atoms: O3_3  and  C7_14 
REMARK    3  A    between atoms: O5_5  and  C9_16 
REMARK    4  A    between atoms: O6_6  and  C13_20 
REMARK    5  A    between atoms: O7_7  and  C15_22 
REMARK    6  A    between atoms: C3_10  and  C4_11 
ROOT
ATOM      1  O1  UNK A          38.826  -9.946   4.856  0.00  0.00    -0.306 OA
ATOM      2  O4  UNK A          36.287 -10.704   1.760  0.00  0.00    -0.284 OA
ATOM      3  C1  UNK A          37.283  -9.107   3.181  0.00  0.00     0.084 A 
ATOM      4  C2  UNK A          38.163  -8.914   4.244  0.00  0.00     0.096 A 
ATOM      5  C3  UNK A          38.622 -11.234   4.388  0.00  0.00     0.123 A 
ATOM      6  C5  UNK A          37.795 -11.556   3.376  0.00  0.00     0.152 A 
ATOM      7  C6  UNK A          37.052 -10.473   2.688  0.00  0.00     0.223 A 
ATOM      8  C7  UNK A          36.634  -8.017   2.597  0.00  0.00     0.085 A 
ATOM      9  C8  UNK A          38.397  -7.628   4.732  0.00  0.00     0.075 A 
ATOM     10  C9  UNK A          37.751  -6.537   4.151  0.00  0.00     0.071 A 
ATOM     11  C11 UNK A          36.870  -6.732   3.086  0.00  0.00     0.074 A 
ENDROOT
BRANCH   5  12
ATOM     12  C4  UNK A          39.394 -12.246   5.131  0.00  0.00     0.004 A 
ATOM     13  C10 UNK A          39.466 -12.185   6.523  0.00  0.00     0.053 A 
ATOM     14  C13 UNK A          40.195 -13.144   7.226  0.00  0.00     0.099 A 
ATOM     15  C15 UNK A          40.854 -14.162   6.538  0.00  0.00     0.098 A 
ATOM     16  C14 UNK A          40.783 -14.223   5.146  0.00  0.00     0.040 A 
ATOM     17  C12 UNK A          40.052 -13.265   4.443  0.00  0.00     0.017 A 
BRANCH  14  18
ATOM     18  O6  UNK A          40.260 -13.074   8.585  0.00  0.00    -0.358 OA
ATOM     19  H9  UNK A          39.921 -13.897   8.973  0.00  0.00     0.217 HD
ENDBRANCH  14  18
BRANCH  15  20
ATOM     20  O7  UNK A          41.569 -15.105   7.214  0.00  0.00    -0.358 OA
ATOM     21  H10 UNK A          41.077 -15.941   7.227  0.00  0.00     0.217 HD
ENDBRANCH  15  20
ENDBRANCH   5  12
BRANCH   6  22
ATOM     22  O2  UNK A          37.589 -12.852   2.956  0.00  0.00    -0.355 OA
ATOM     23  H6  UNK A          37.577 -12.886   1.985  0.00  0.00     0.218 HD
ENDBRANCH   6  22
BRANCH   8  24
ATOM     24  O3  UNK A          35.765  -8.151   1.556  0.00  0.00    -0.360 OA
ATOM     25  H7  UNK A          35.331  -7.305   1.364  0.00  0.00     0.217 HD
ENDBRANCH   8  24
BRANCH  10  26
ATOM     26  O5  UNK A          37.978  -5.282   4.625  0.00  0.00    -0.361 OA
ATOM     27  H8  UNK A          37.835  -4.642   3.906  0.00  0.00     0.217 HD
ENDBRANCH  10  26
TORSDOF 6
ENDMDL
MODEL 16
REMARK VINA RESULT:      -6.3     22.188     23.087
REMARK  6 active torsions:
REMARK  status: ('A' for Active; 'I' for Inactive)
REMARK    1  A    between atoms: O2_2  and  C5_12 
REMARK    2  A    between atoms: O3_3  and  C7_14 
REMARK    3  A    between atoms: O5_5  and  C9_16 
REMARK    4  A    between atoms: O6_6  and  C13_20 
REMARK    5  A    between atoms: O7_7  and  C15_22 
REMARK    6  A    between atoms: C3_10  and  C4_11 
ROOT
ATOM      1  O1  UNK A          38.408  -6.626  -7.119  0.00  0.00    -0.306 OA
ATOM      2  O4  UNK A          36.583  -7.578  -3.602  0.00  0.00    -0.284 OA
ATOM      3  C1  UNK A          36.360  -6.861  -5.837  0.00  0.00     0.084 A 
ATOM      4  C2  UNK A          37.044  -6.549  -7.011  0.00  0.00     0.096 A 
ATOM      5  C3  UNK A          39.136  -7.046  -6.017  0.00  0.00     0.123 A 
ATOM      6  C5  UNK A          38.600  -7.369  -4.826  0.00  0.00     0.152 A 
ATOM      7  C6  UNK A          37.128  -7.295  -4.660  0.00  0.00     0.223 A 
ATOM      8  C7  UNK A          34.968  -6.763  -5.785  0.00  0.00     0.085 A 
ATOM      9  C8  UNK A          36.337  -6.132  -8.140  0.00  0.00     0.075 A 
ATOM     10  C9  UNK A          34.947  -6.033  -8.091  0.00  0.00     0.071 A 
ATOM     11  C11 UNK A          34.264  -6.347  -6.915  0.00  0.00     0.074 A 
ENDROOT
BRANCH   5  12
ATOM     12  C4  UNK A          40.588  -7.085  -6.268  0.00  0.00     0.004 A 
ATOM     13  C10 UNK A          41.093  -7.830  -7.335  0.00  0.00     0.053 A 
ATOM     14  C13 UNK A          42.466  -7.865  -7.573  0.00  0.00     0.099 A 
ATOM     15  C15 UNK A          43.336  -7.158  -6.743  0.00  0.00     0.098 A 
ATOM     16  C14 UNK A          42.832  -6.413  -5.676  0.00  0.00     0.040 A 
ATOM     17  C12 UNK A          41.458  -6.377  -5.439  0.00  0.00     0.017 A 
BRANCH  14  18
ATOM     18  O6  UNK A          42.948  -8.596  -8.616  0.00  0.00    -0.358 OA
ATOM     19  H9  UNK A          43.726  -8.156  -8.994  0.00  0.00     0.217 HD
ENDBRANCH  14  18
BRANCH  15  20
ATOM     20  O7  UNK A          44.680  -7.183  -6.966  0.00  0.00    -0.358 OA
ATOM     21  H10 UNK A          44.879  -6.762  -7.817  0.00  0.00     0.217 HD
ENDBRANCH  15  20
ENDBRANCH   5  12
BRANCH   6  22
ATOM     22  O2  UNK A          39.356  -7.752  -3.739  0.00  0.00    -0.355 OA
ATOM     23  H6  UNK A          40.286  -7.516  -3.885  0.00  0.00     0.218 HD
ENDBRANCH   6  22
BRANCH   8  24
ATOM     24  O3  UNK A          34.252  -7.056  -4.663  0.00  0.00    -0.360 OA
ATOM     25  H7  UNK A          34.536  -7.905  -4.291  0.00  0.00     0.217 HD
ENDBRANCH   8  24
BRANCH  10  26
ATOM     26  O5  UNK A          34.256  -5.627  -9.191  0.00  0.00    -0.361 OA
ATOM     27  H8  UNK A          33.587  -6.299  -9.410  0.00  0.00     0.217 HD
ENDBRANCH  10  26
TORSDOF 6
ENDMDL
MODEL 17
REMARK VINA RESULT:      -6.2     15.572     17.927
REMARK  6 active torsions:
REMARK  status: ('A' for Active; 'I' for Inactive)
REMARK    1  A    between atoms: O2_2  and  C5_12 
REMARK    2  A    between atoms: O3_3  and  C7_14 
REMARK    3  A    between atoms: O5_5  and  C9_16 
REMARK    4  A    between atoms: O6_6  and  C13_20 
REMARK    5  A    between atoms: O7_7  and  C15_22 
REMARK    6  A    between atoms: C3_10  and  C4_11 
ROOT
ATOM      1  O1  UNK A          43.940  -0.058   9.159  0.00  0.00    -0.306 OA
ATOM      2  O4  UNK A          40.961   2.075   7.374  0.00  0.00    -0.284 OA
ATOM      3  C1  UNK A          41.581   0.185   8.640  0.00  0.00     0.084 A 
ATOM      4  C2  UNK A          42.644  -0.499   9.228  0.00  0.00     0.096 A 
ATOM      5  C3  UNK A          44.201   1.126   8.487  0.00  0.00     0.123 A 
ATOM      6  C5  UNK A          43.269   1.875   7.871  0.00  0.00     0.152 A 
ATOM      7  C6  UNK A          41.854   1.435   7.914  0.00  0.00     0.223 A 
ATOM      8  C7  UNK A          40.280  -0.314   8.742  0.00  0.00     0.085 A 
ATOM      9  C8  UNK A          42.412  -1.689   9.919  0.00  0.00     0.075 A 
ATOM     10  C9  UNK A          41.114  -2.189  10.023  0.00  0.00     0.071 A 
ATOM     11  C11 UNK A          40.051  -1.503   9.435  0.00  0.00     0.074 A 
ENDROOT
BRANCH   5  12
ATOM     12  C4  UNK A          45.630   1.485   8.489  0.00  0.00     0.004 A 
ATOM     13  C10 UNK A          46.293   1.722   7.285  0.00  0.00     0.053 A 
ATOM     14  C13 UNK A          47.645   2.063   7.287  0.00  0.00     0.099 A 
ATOM     15  C15 UNK A          48.336   2.165   8.495  0.00  0.00     0.098 A 
ATOM     16  C14 UNK A          47.674   1.928   9.699  0.00  0.00     0.040 A 
ATOM     17  C12 UNK A          46.322   1.588   9.697  0.00  0.00     0.017 A 
BRANCH  14  18
ATOM     18  O6  UNK A          48.281   2.291   6.105  0.00  0.00    -0.358 OA
ATOM     19  H9  UNK A          47.937   3.102   5.697  0.00  0.00     0.217 HD
ENDBRANCH  14  18
BRANCH  15  20
ATOM     20  O7  UNK A          49.657   2.499   8.510  0.00  0.00    -0.358 OA
ATOM     21  H10 UNK A          50.010   2.399   9.408  0.00  0.00     0.217 HD
ENDBRANCH  15  20
ENDBRANCH   5  12
BRANCH   6  22
ATOM     22  O2  UNK A          43.566   3.032   7.183  0.00  0.00    -0.355 OA
ATOM     23  H6  UNK A          43.781   3.742   7.809  0.00  0.00     0.218 HD
ENDBRANCH   6  22
BRANCH   8  24
ATOM     24  O3  UNK A          39.207   0.315   8.186  0.00  0.00    -0.360 OA
ATOM     25  H7  UNK A          38.518  -0.326   7.956  0.00  0.00     0.217 HD
ENDBRANCH   8  24
BRANCH  10  26
ATOM     26  O5  UNK A          40.885  -3.348  10.697  0.00  0.00    -0.361 OA
ATOM     27  H8  UNK A          41.738  -3.748  10.938  0.00  0.00     0.217 HD
ENDBRANCH  10  26
TORSDOF 6
ENDMDL
MODEL 18
REMARK VINA RESULT:      -6.2     14.980     16.971
REMARK  6 active torsions:
REMARK  status: ('A' for Active; 'I' for Inactive)
REMARK    1  A    between atoms: O2_2  and  C5_12 
REMARK    2  A    between atoms: O3_3  and  C7_14 
REMARK    3  A    between atoms: O5_5  and  C9_16 
REMARK    4  A    between atoms: O6_6  and  C13_20 
REMARK    5  A    between atoms: O7_7  and  C15_22 
REMARK    6  A    between atoms: C3_10  and  C4_11 
ROOT
ATOM      1  O1  UNK A          42.825   2.094   7.727  0.00  0.00    -0.306 OA
ATOM      2  O4  UNK A          42.289  -1.351   9.837  0.00  0.00    -0.284 OA
ATOM      3  C1  UNK A          41.352   0.303   8.441  0.00  0.00     0.084 A 
ATOM      4  C2  UNK A          41.599   1.482   7.740  0.00  0.00     0.096 A 
ATOM      5  C3  UNK A          43.866   1.508   8.429  0.00  0.00     0.123 A 
ATOM      6  C5  UNK A          43.758   0.377   9.151  0.00  0.00     0.152 A 
ATOM      7  C6  UNK A          42.449  -0.318   9.199  0.00  0.00     0.223 A 
ATOM      8  C7  UNK A          40.081  -0.276   8.419  0.00  0.00     0.085 A 
ATOM      9  C8  UNK A          40.574   2.091   7.016  0.00  0.00     0.075 A 
ATOM     10  C9  UNK A          39.304   1.516   6.992  0.00  0.00     0.071 A 
ATOM     11  C11 UNK A          39.058   0.334   7.693  0.00  0.00     0.074 A 
ENDROOT
BRANCH   5  12
ATOM     12  C4  UNK A          45.126   2.266   8.331  0.00  0.00     0.004 A 
ATOM     13  C10 UNK A          46.017   2.009   7.289  0.00  0.00     0.053 A 
ATOM     14  C13 UNK A          47.208   2.727   7.196  0.00  0.00     0.099 A 
ATOM     15  C15 UNK A          47.510   3.703   8.147  0.00  0.00     0.098 A 
ATOM     16  C14 UNK A          46.619   3.961   9.189  0.00  0.00     0.040 A 
ATOM     17  C12 UNK A          45.427   3.242   9.281  0.00  0.00     0.017 A 
BRANCH  14  18
ATOM     18  O6  UNK A          48.071   2.467   6.175  0.00  0.00    -0.358 OA
ATOM     19  H9  UNK A          48.331   1.531   6.196  0.00  0.00     0.217 HD
ENDBRANCH  14  18
BRANCH  15  20
ATOM     20  O7  UNK A          48.670   4.413   8.065  0.00  0.00    -0.358 OA
ATOM     21  H10 UNK A          49.347   3.999   8.624  0.00  0.00     0.217 HD
ENDBRANCH  15  20
ENDBRANCH   5  12
BRANCH   6  22
ATOM     22  O2  UNK A          44.805  -0.163   9.865  0.00  0.00    -0.355 OA
ATOM     23  H6  UNK A          44.462  -0.683  10.611  0.00  0.00     0.218 HD
ENDBRANCH   6  22
BRANCH   8  24
ATOM     24  O3  UNK A          39.786  -1.428   9.086  0.00  0.00    -0.360 OA
ATOM     25  H7  UNK A          38.905  -1.747   8.841  0.00  0.00     0.217 HD
ENDBRANCH   8  24
BRANCH  10  26
ATOM     26  O5  UNK A          38.303   2.108   6.285  0.00  0.00    -0.361 OA
ATOM     27  H8  UNK A          37.495   1.573   6.372  0.00  0.00     0.217 HD
ENDBRANCH  10  26
TORSDOF 6
ENDMDL
MODEL 19
REMARK VINA RESULT:      -6.2     13.746     16.365
REMARK  6 active torsions:
REMARK  status: ('A' for Active; 'I' for Inactive)
REMARK    1  A    between atoms: O2_2  and  C5_12 
REMARK    2  A    between atoms: O3_3  and  C7_14 
REMARK    3  A    between atoms: O5_5  and  C9_16 
REMARK    4  A    between atoms: O6_6  and  C13_20 
REMARK    5  A    between atoms: O7_7  and  C15_22 
REMARK    6  A    between atoms: C3_10  and  C4_11 
ROOT
ATOM      1  O1  UNK A          41.545   3.223   8.750  0.00  0.00    -0.306 OA
ATOM      2  O4  UNK A          43.546  -0.177   9.773  0.00  0.00    -0.284 OA
ATOM      3  C1  UNK A          41.642   0.798   8.780  0.00  0.00     0.084 A 
ATOM      4  C2  UNK A          41.008   1.997   8.458  0.00  0.00     0.096 A 
ATOM      5  C3  UNK A          42.779   3.272   9.381  0.00  0.00     0.123 A 
ATOM      6  C5  UNK A          43.489   2.192   9.752  0.00  0.00     0.152 A 
ATOM      7  C6  UNK A          42.945   0.843   9.461  0.00  0.00     0.223 A 
ATOM      8  C7  UNK A          41.046  -0.424   8.459  0.00  0.00     0.085 A 
ATOM      9  C8  UNK A          39.770   1.980   7.814  0.00  0.00     0.075 A 
ATOM     10  C9  UNK A          39.172   0.762   7.492  0.00  0.00     0.071 A 
ATOM     11  C11 UNK A          39.809  -0.437   7.814  0.00  0.00     0.074 A 
ENDROOT
BRANCH   5  12
ATOM     12  C4  UNK A          43.240   4.648   9.635  0.00  0.00     0.004 A 
ATOM     13  C10 UNK A          42.596   5.436  10.589  0.00  0.00     0.053 A 
ATOM     14  C13 UNK A          43.034   6.738  10.831  0.00  0.00     0.099 A 
ATOM     15  C15 UNK A          44.116   7.253  10.116  0.00  0.00     0.098 A 
ATOM     16  C14 UNK A          44.760   6.466   9.161  0.00  0.00     0.040 A 
ATOM     17  C12 UNK A          44.323   5.164   8.921  0.00  0.00     0.017 A 
BRANCH  14  18
ATOM     18  O6  UNK A          42.397   7.498  11.763  0.00  0.00    -0.358 OA
ATOM     19  H9  UNK A          42.257   6.978  12.571  0.00  0.00     0.217 HD
ENDBRANCH  14  18
BRANCH  15  20
ATOM     20  O7  UNK A          44.554   8.523  10.344  0.00  0.00    -0.358 OA
ATOM     21  H10 UNK A          45.418   8.498  10.785  0.00  0.00     0.217 HD
ENDBRANCH  15  20
ENDBRANCH   5  12
BRANCH   6  22
ATOM     22  O2  UNK A          44.699   2.275  10.407  0.00  0.00    -0.355 OA
ATOM     23  H6  UNK A          44.569   2.128  11.358  0.00  0.00     0.218 HD
ENDBRANCH   6  22
BRANCH   8  24
ATOM     24  O3  UNK A          41.623  -1.623   8.751  0.00  0.00    -0.360 OA
ATOM     25  H7  UNK A          42.174  -1.924   8.013  0.00  0.00     0.217 HD
ENDBRANCH   8  24
BRANCH  10  26
ATOM     26  O5  UNK A          37.965   0.743   6.863  0.00  0.00    -0.361 OA
ATOM     27  H8  UNK A          37.443  -0.003   7.204  0.00  0.00     0.217 HD
ENDBRANCH  10  26
TORSDOF 6
ENDMDL
MODEL 20
REMARK VINA RESULT:      -6.2     15.887     18.493
REMARK  6 active torsions:
REMARK  status: ('A' for Active; 'I' for Inactive)
REMARK    1  A    between atoms: O2_2  and  C5_12 
REMARK    2  A    between atoms: O3_3  and  C7_14 
REMARK    3  A    between atoms: O5_5  and  C9_16 
REMARK    4  A    between atoms: O6_6  and  C13_20 
REMARK    5  A    between atoms: O7_7  and  C15_22 
REMARK    6  A    between atoms: C3_10  and  C4_11 
ROOT
ATOM      1  O1  UNK A          40.820  -1.430   8.574  0.00  0.00    -0.306 OA
ATOM      2  O4  UNK A          39.205   2.274   8.046  0.00  0.00    -0.284 OA
ATOM      3  C1  UNK A          41.057   0.981   8.722  0.00  0.00     0.084 A 
ATOM      4  C2  UNK A          41.552  -0.313   8.880  0.00  0.00     0.096 A 
ATOM      5  C3  UNK A          39.538  -1.265   8.072  0.00  0.00     0.123 A 
ATOM      6  C5  UNK A          38.942  -0.074   7.879  0.00  0.00     0.152 A 
ATOM      7  C6  UNK A          39.694   1.163   8.202  0.00  0.00     0.223 A 
ATOM      8  C7  UNK A          41.849   2.083   9.052  0.00  0.00     0.085 A 
ATOM      9  C8  UNK A          42.842  -0.511   9.374  0.00  0.00     0.075 A 
ATOM     10  C9  UNK A          43.635   0.588   9.705  0.00  0.00     0.071 A 
ATOM     11  C11 UNK A          43.139   1.882   9.545  0.00  0.00     0.074 A 
ENDROOT
BRANCH   5  12
ATOM     12  C4  UNK A          38.864  -2.543   7.784  0.00  0.00     0.004 A 
ATOM     13  C10 UNK A          38.912  -3.085   6.500  0.00  0.00     0.053 A 
ATOM     14  C13 UNK A          38.276  -4.296   6.228  0.00  0.00     0.099 A 
ATOM     15  C15 UNK A          37.588  -4.964   7.242  0.00  0.00     0.098 A 
ATOM     16  C14 UNK A          37.540  -4.423   8.526  0.00  0.00     0.040 A 
ATOM     17  C12 UNK A          38.178  -3.213   8.798  0.00  0.00     0.017 A 
BRANCH  14  18
ATOM     18  O6  UNK A          38.328  -4.814   4.970  0.00  0.00    -0.358 OA
ATOM     19  H9  UNK A          37.430  -5.010   4.658  0.00  0.00     0.217 HD
ENDBRANCH  14  18
BRANCH  15  20
ATOM     20  O7  UNK A          36.963  -6.148   6.989  0.00  0.00    -0.358 OA
ATOM     21  H10 UNK A          37.126  -6.415   6.071  0.00  0.00     0.217 HD
ENDBRANCH  15  20
ENDBRANCH   5  12
BRANCH   6  22
ATOM     22  O2  UNK A          37.653   0.055   7.409  0.00  0.00    -0.355 OA
ATOM     23  H6  UNK A          37.021  -0.153   8.117  0.00  0.00     0.218 HD
ENDBRANCH   6  22
BRANCH   8  24
ATOM     24  O3  UNK A          41.414   3.368   8.916  0.00  0.00    -0.360 OA
ATOM     25  H7  UNK A          41.109   3.716   9.767  0.00  0.00     0.217 HD
ENDBRANCH   8  24
BRANCH  10  26
ATOM     26  O5  UNK A          44.893   0.397  10.186  0.00  0.00    -0.361 OA
ATOM     27  H8  UNK A          45.405  -0.118   9.538  0.00  0.00     0.217 HD
ENDBRANCH  10  26
TORSDOF 6
ENDMDL
