MODEL 1
REMARK VINA RESULT:      -6.1      0.000      0.000
REMARK  6 active torsions:
REMARK  status: ('A' for Active; 'I' for Inactive)
REMARK    1  A    between atoms: O2_2  and  C5_12 
REMARK    2  A    between atoms: O3_3  and  C7_14 
REMARK    3  A    between atoms: O5_5  and  C9_16 
REMARK    4  A    between atoms: O6_6  and  C13_20 
REMARK    5  A    between atoms: O7_7  and  C15_22 
REMARK    6  A    between atoms: C3_10  and  C4_11 
ROOT
ATOM      1  O1  UNK A          42.524  21.260  11.961  0.00  0.00    -0.306 OA
ATOM      2  O4  UNK A          45.944  19.112  11.414  0.00  0.00    -0.284 OA
ATOM      3  C1  UNK A          43.647  19.108  11.947  0.00  0.00     0.084 A 
ATOM      4  C2  UNK A          42.513  19.899  12.121  0.00  0.00     0.096 A 
ATOM      5  C3  UNK A          43.713  21.874  11.598  0.00  0.00     0.123 A 
ATOM      6  C5  UNK A          44.878  21.227  11.408  0.00  0.00     0.152 A 
ATOM      7  C6  UNK A          44.915  19.754  11.575  0.00  0.00     0.223 A 
ATOM      8  C7  UNK A          43.575  17.724  12.126  0.00  0.00     0.085 A 
ATOM      9  C8  UNK A          41.299  19.310  12.476  0.00  0.00     0.075 A 
ATOM     10  C9  UNK A          41.223  17.928  12.655  0.00  0.00     0.071 A 
ATOM     11  C11 UNK A          42.361  17.138  12.480  0.00  0.00     0.074 A 
ENDROOT
BRANCH   5  12
ATOM     12  C4  UNK A          43.587  23.335  11.459  0.00  0.00     0.004 A 
ATOM     13  C10 UNK A          43.743  23.934  10.208  0.00  0.00     0.053 A 
ATOM     14  C13 UNK A          43.622  25.317  10.077  0.00  0.00     0.099 A 
ATOM     15  C15 UNK A          43.348  26.102  11.197  0.00  0.00     0.098 A 
ATOM     16  C14 UNK A          43.192  25.504  12.447  0.00  0.00     0.040 A 
ATOM     17  C12 UNK A          43.312  24.121  12.579  0.00  0.00     0.017 A 
BRANCH  14  18
ATOM     18  O6  UNK A          43.778  25.891   8.852  0.00  0.00    -0.358 OA
ATOM     19  H9  UNK A          44.524  26.512   8.872  0.00  0.00     0.217 HD
ENDBRANCH  14  18
BRANCH  15  20
ATOM     20  O7  UNK A          43.226  27.455  11.081  0.00  0.00    -0.358 OA
ATOM     21  H10 UNK A          42.621  27.668  10.354  0.00  0.00     0.217 HD
ENDBRANCH  15  20
ENDBRANCH   5  12
BRANCH   6  22
ATOM     22  O2  UNK A          46.051  21.871  11.079  0.00  0.00    -0.355 OA
ATOM     23  H6  UNK A          46.753  21.219  10.921  0.00  0.00     0.218 HD
ENDBRANCH   6  22
BRANCH   8  24
ATOM     24  O3  UNK A          44.654  16.907  11.968  0.00  0.00    -0.360 OA
ATOM     25  H7  UNK A          45.478  17.407  12.067  0.00  0.00     0.217 HD
ENDBRANCH   8  24
BRANCH  10  26
ATOM     26  O5  UNK A          40.041  17.352  13.001  0.00  0.00    -0.361 OA
ATOM     27  H8  UNK A          39.719  17.760  13.823  0.00  0.00     0.217 HD
ENDBRANCH  10  26
TORSDOF 6
ENDMDL
MODEL 2
REMARK VINA RESULT:      -6.0      1.280      2.856
REMARK  6 active torsions:
REMARK  status: ('A' for Active; 'I' for Inactive)
REMARK    1  A    between atoms: O2_2  and  C5_12 
REMARK    2  A    between atoms: O3_3  and  C7_14 
REMARK    3  A    between atoms: O5_5  and  C9_16 
REMARK    4  A    between atoms: O6_6  and  C13_20 
REMARK    5  A    between atoms: O7_7  and  C15_22 
REMARK    6  A    between atoms: C3_10  and  C4_11 
ROOT
ATOM      1  O1  UNK A          44.339  21.276  11.787  0.00  0.00    -0.306 OA
ATOM      2  O4  UNK A          41.013  18.952  11.411  0.00  0.00    -0.284 OA
ATOM      3  C1  UNK A          43.334  19.067  11.810  0.00  0.00     0.084 A 
ATOM      4  C2  UNK A          44.433  19.917  11.926  0.00  0.00     0.096 A 
ATOM      5  C3  UNK A          43.094  21.831  11.533  0.00  0.00     0.123 A 
ATOM      6  C5  UNK A          41.958  21.124  11.391  0.00  0.00     0.152 A 
ATOM      7  C6  UNK A          42.013  19.648  11.528  0.00  0.00     0.223 A 
ATOM      8  C7  UNK A          43.491  17.687  11.961  0.00  0.00     0.085 A 
ATOM      9  C8  UNK A          45.698  19.389  12.191  0.00  0.00     0.075 A 
ATOM     10  C9  UNK A          45.858  18.012  12.342  0.00  0.00     0.071 A 
ATOM     11  C11 UNK A          44.756  17.163  12.227  0.00  0.00     0.074 A 
ENDROOT
BRANCH   5  12
ATOM     12  C4  UNK A          43.133  23.299  11.407  0.00  0.00     0.004 A 
ATOM     13  C10 UNK A          43.493  23.887  10.194  0.00  0.00     0.053 A 
ATOM     14  C13 UNK A          43.528  25.275  10.075  0.00  0.00     0.099 A 
ATOM     15  C15 UNK A          43.206  26.078  11.170  0.00  0.00     0.098 A 
ATOM     16  C14 UNK A          42.847  25.491  12.383  0.00  0.00     0.040 A 
ATOM     17  C12 UNK A          42.811  24.102  12.502  0.00  0.00     0.017 A 
BRANCH  14  18
ATOM     18  O6  UNK A          43.881  25.838   8.886  0.00  0.00    -0.358 OA
ATOM     19  H9  UNK A          44.399  26.643   9.045  0.00  0.00     0.217 HD
ENDBRANCH  14  18
BRANCH  15  20
ATOM     20  O7  UNK A          43.236  27.436  11.065  0.00  0.00    -0.358 OA
ATOM     21  H10 UNK A          42.721  27.831  11.786  0.00  0.00     0.217 HD
ENDBRANCH  15  20
ENDBRANCH   5  12
BRANCH   6  22
ATOM     22  O2  UNK A          40.741  21.704  11.107  0.00  0.00    -0.355 OA
ATOM     23  H6  UNK A          40.862  22.648  10.917  0.00  0.00     0.218 HD
ENDBRANCH   6  22
BRANCH   8  24
ATOM     24  O3  UNK A          42.450  16.814  11.857  0.00  0.00    -0.360 OA
ATOM     25  H7  UNK A          41.639  17.208  12.214  0.00  0.00     0.217 HD
ENDBRANCH   8  24
BRANCH  10  26
ATOM     26  O5  UNK A          47.089  17.495  12.601  0.00  0.00    -0.361 OA
ATOM     27  H8  UNK A          47.542  18.065  13.247  0.00  0.00     0.217 HD
ENDBRANCH  10  26
TORSDOF 6
ENDMDL
MODEL 3
REMARK VINA RESULT:      -5.9      4.986      6.382
REMARK  6 active torsions:
REMARK  status: ('A' for Active; 'I' for Inactive)
REMARK    1  A    between atoms: O2_2  and  C5_12 
REMARK    2  A    between atoms: O3_3  and  C7_14 
REMARK    3  A    between atoms: O5_5  and  C9_16 
REMARK    4  A    between atoms: O6_6  and  C13_20 
REMARK    5  A    between atoms: O7_7  and  C15_22 
REMARK    6  A    between atoms: C3_10  and  C4_11 
ROOT
ATOM      1  O1  UNK A          38.910  22.064  11.060  0.00  0.00    -0.306 OA
ATOM      2  O4  UNK A          37.762  19.595  14.092  0.00  0.00    -0.284 OA
ATOM      3  C1  UNK A          39.340  20.096  12.412  0.00  0.00     0.084 A 
ATOM      4  C2  UNK A          39.677  20.977  11.387  0.00  0.00     0.096 A 
ATOM      5  C3  UNK A          37.757  22.305  11.791  0.00  0.00     0.123 A 
ATOM      6  C5  UNK A          37.317  21.529  12.798  0.00  0.00     0.152 A 
ATOM      7  C6  UNK A          38.111  20.338  13.183  0.00  0.00     0.223 A 
ATOM      8  C7  UNK A          40.161  19.002  12.700  0.00  0.00     0.085 A 
ATOM      9  C8  UNK A          40.837  20.767  10.639  0.00  0.00     0.075 A 
ATOM     10  C9  UNK A          41.658  19.676  10.924  0.00  0.00     0.071 A 
ATOM     11  C11 UNK A          41.320  18.795  11.952  0.00  0.00     0.074 A 
ENDROOT
BRANCH   5  12
ATOM     12  C4  UNK A          37.028  23.503  11.338  0.00  0.00     0.004 A 
ATOM     13  C10 UNK A          37.341  24.754  11.870  0.00  0.00     0.053 A 
ATOM     14  C13 UNK A          36.652  25.887  11.440  0.00  0.00     0.099 A 
ATOM     15  C15 UNK A          35.648  25.770  10.479  0.00  0.00     0.098 A 
ATOM     16  C14 UNK A          35.335  24.520   9.946  0.00  0.00     0.040 A 
ATOM     17  C12 UNK A          36.025  23.386  10.375  0.00  0.00     0.017 A 
BRANCH  14  18
ATOM     18  O6  UNK A          36.965  27.103  11.968  0.00  0.00    -0.358 OA
ATOM     19  H9  UNK A          37.924  27.163  12.109  0.00  0.00     0.217 HD
ENDBRANCH  14  18
BRANCH  15  20
ATOM     20  O7  UNK A          34.969  26.871  10.050  0.00  0.00    -0.358 OA
ATOM     21  H10 UNK A          34.026  26.659   9.960  0.00  0.00     0.217 HD
ENDBRANCH  15  20
ENDBRANCH   5  12
BRANCH   6  22
ATOM     22  O2  UNK A          36.148  21.777  13.484  0.00  0.00    -0.355 OA
ATOM     23  H6  UNK A          35.793  22.644  13.228  0.00  0.00     0.218 HD
ENDBRANCH   6  22
BRANCH   8  24
ATOM     24  O3  UNK A          39.877  18.111  13.692  0.00  0.00    -0.360 OA
ATOM     25  H7  UNK A          39.079  17.606  13.477  0.00  0.00     0.217 HD
ENDBRANCH   8  24
BRANCH  10  26
ATOM     26  O5  UNK A          42.790  19.470  10.197  0.00  0.00    -0.361 OA
ATOM     27  H8  UNK A          43.414  20.196  10.370  0.00  0.00     0.217 HD
ENDBRANCH  10  26
TORSDOF 6
ENDMDL
MODEL 4
REMARK VINA RESULT:      -5.6      7.438      9.572
REMARK  6 active torsions:
REMARK  status: ('A' for Active; 'I' for Inactive)
REMARK    1  A    between atoms: O2_2  and  C5_12 
REMARK    2  A    between atoms: O3_3  and  C7_14 
REMARK    3  A    between atoms: O5_5  and  C9_16 
REMARK    4  A    between atoms: O6_6  and  C13_20 
REMARK    5  A    between atoms: O7_7  and  C15_22 
REMARK    6  A    between atoms: C3_10  and  C4_11 
ROOT
ATOM      1  O1  UNK A          36.104  24.123  10.697  0.00  0.00    -0.306 OA
ATOM      2  O4  UNK A          33.680  22.946  13.754  0.00  0.00    -0.284 OA
ATOM      3  C1  UNK A          33.969  24.290  11.838  0.00  0.00     0.084 A 
ATOM      4  C2  UNK A          34.846  24.652  10.817  0.00  0.00     0.096 A 
ATOM      5  C3  UNK A          36.516  23.178  11.624  0.00  0.00     0.123 A 
ATOM      6  C5  UNK A          35.771  22.750  12.660  0.00  0.00     0.152 A 
ATOM      7  C6  UNK A          34.404  23.298  12.833  0.00  0.00     0.223 A 
ATOM      8  C7  UNK A          32.697  24.864  11.911  0.00  0.00     0.085 A 
ATOM      9  C8  UNK A          34.456  25.593   9.863  0.00  0.00     0.075 A 
ATOM     10  C9  UNK A          33.187  26.168   9.933  0.00  0.00     0.071 A 
ATOM     11  C11 UNK A          32.310  25.804  10.956  0.00  0.00     0.074 A 
ENDROOT
BRANCH   5  12
ATOM     12  C4  UNK A          37.886  22.692  11.380  0.00  0.00     0.004 A 
ATOM     13  C10 UNK A          38.125  21.751  10.379  0.00  0.00     0.053 A 
ATOM     14  C13 UNK A          39.421  21.292  10.148  0.00  0.00     0.099 A 
ATOM     15  C15 UNK A          40.480  21.774  10.919  0.00  0.00     0.098 A 
ATOM     16  C14 UNK A          40.241  22.715  11.920  0.00  0.00     0.040 A 
ATOM     17  C12 UNK A          38.944  23.175  12.151  0.00  0.00     0.017 A 
BRANCH  14  18
ATOM     18  O6  UNK A          39.642  20.372   9.169  0.00  0.00    -0.358 OA
ATOM     19  H9  UNK A          38.852  19.820   9.052  0.00  0.00     0.217 HD
ENDBRANCH  14  18
BRANCH  15  20
ATOM     20  O7  UNK A          41.751  21.334  10.701  0.00  0.00    -0.358 OA
ATOM     21  H10 UNK A          42.320  21.598  11.441  0.00  0.00     0.217 HD
ENDBRANCH  15  20
ENDBRANCH   5  12
BRANCH   6  22
ATOM     22  O2  UNK A          36.223  21.833  13.584  0.00  0.00    -0.355 OA
ATOM     23  H6  UNK A          36.871  22.251  14.174  0.00  0.00     0.218 HD
ENDBRANCH   6  22
BRANCH   8  24
ATOM     24  O3  UNK A          31.802  24.546  12.888  0.00  0.00    -0.360 OA
ATOM     25  H7  UNK A          31.753  25.253  13.549  0.00  0.00     0.217 HD
ENDBRANCH   8  24
BRANCH  10  26
ATOM     26  O5  UNK A          32.805  27.085   9.004  0.00  0.00    -0.361 OA
ATOM     27  H8  UNK A          31.903  26.875   8.704  0.00  0.00     0.217 HD
ENDBRANCH  10  26
TORSDOF 6
ENDMDL
MODEL 5
REMARK VINA RESULT:      -5.6      2.943      5.154
REMARK  6 active torsions:
REMARK  status: ('A' for Active; 'I' for Inactive)
REMARK    1  A    between atoms: O2_2  and  C5_12 
REMARK    2  A    between atoms: O3_3  and  C7_14 
REMARK    3  A    between atoms: O5_5  and  C9_16 
REMARK    4  A    between atoms: O6_6  and  C13_20 
REMARK    5  A    between atoms: O7_7  and  C15_22 
REMARK    6  A    between atoms: C3_10  and  C4_11 
ROOT
ATOM      1  O1  UNK A          42.494  21.376  10.781  0.00  0.00    -0.306 OA
ATOM      2  O4  UNK A          43.117  17.558  12.062  0.00  0.00    -0.284 OA
ATOM      3  C1  UNK A          44.040  19.557  11.217  0.00  0.00     0.084 A 
ATOM      4  C2  UNK A          43.761  20.853  10.790  0.00  0.00     0.096 A 
ATOM      5  C3  UNK A          41.448  20.584  11.227  0.00  0.00     0.123 A 
ATOM      6  C5  UNK A          41.581  19.316  11.657  0.00  0.00     0.152 A 
ATOM      7  C6  UNK A          42.933  18.706  11.680  0.00  0.00     0.223 A 
ATOM      8  C7  UNK A          45.352  19.077  11.204  0.00  0.00     0.085 A 
ATOM      9  C8  UNK A          44.794  21.678  10.344  0.00  0.00     0.075 A 
ATOM     10  C9  UNK A          46.106  21.203  10.329  0.00  0.00     0.071 A 
ATOM     11  C11 UNK A          46.383  19.904  10.758  0.00  0.00     0.074 A 
ENDROOT
BRANCH   5  12
ATOM     12  C4  UNK A          40.143  21.265  11.165  0.00  0.00     0.004 A 
ATOM     13  C10 UNK A          39.742  22.103  12.206  0.00  0.00     0.053 A 
ATOM     14  C13 UNK A          38.508  22.749  12.146  0.00  0.00     0.099 A 
ATOM     15  C15 UNK A          37.673  22.556  11.045  0.00  0.00     0.098 A 
ATOM     16  C14 UNK A          38.073  21.719  10.004  0.00  0.00     0.040 A 
ATOM     17  C12 UNK A          39.308  21.073  10.064  0.00  0.00     0.017 A 
BRANCH  14  18
ATOM     18  O6  UNK A          38.126  23.563  13.169  0.00  0.00    -0.358 OA
ATOM     19  H9  UNK A          38.078  23.053  13.994  0.00  0.00     0.217 HD
ENDBRANCH  14  18
BRANCH  15  20
ATOM     20  O7  UNK A          36.465  23.182  10.975  0.00  0.00    -0.358 OA
ATOM     21  H10 UNK A          36.306  23.681  11.791  0.00  0.00     0.217 HD
ENDBRANCH  15  20
ENDBRANCH   5  12
BRANCH   6  22
ATOM     22  O2  UNK A          40.515  18.543  12.064  0.00  0.00    -0.355 OA
ATOM     23  H6  UNK A          40.087  18.138  11.293  0.00  0.00     0.218 HD
ENDBRANCH   6  22
BRANCH   8  24
ATOM     24  O3  UNK A          45.678  17.818  11.611  0.00  0.00    -0.360 OA
ATOM     25  H7  UNK A          46.511  17.826  12.107  0.00  0.00     0.217 HD
ENDBRANCH   8  24
BRANCH  10  26
ATOM     26  O5  UNK A          47.114  22.006   9.896  0.00  0.00    -0.361 OA
ATOM     27  H8  UNK A          47.829  22.000  10.555  0.00  0.00     0.217 HD
ENDBRANCH  10  26
TORSDOF 6
ENDMDL
MODEL 6
REMARK VINA RESULT:      -5.5      4.580      6.046
REMARK  6 active torsions:
REMARK  status: ('A' for Active; 'I' for Inactive)
REMARK    1  A    between atoms: O2_2  and  C5_12 
REMARK    2  A    between atoms: O3_3  and  C7_14 
REMARK    3  A    between atoms: O5_5  and  C9_16 
REMARK    4  A    between atoms: O6_6  and  C13_20 
REMARK    5  A    between atoms: O7_7  and  C15_22 
REMARK    6  A    between atoms: C3_10  and  C4_11 
ROOT
ATOM      1  O1  UNK A          40.226  22.843  11.386  0.00  0.00    -0.306 OA
ATOM      2  O4  UNK A          40.611  18.816  11.879  0.00  0.00    -0.284 OA
ATOM      3  C1  UNK A          41.646  20.875  11.376  0.00  0.00     0.084 A 
ATOM      4  C2  UNK A          41.448  22.246  11.221  0.00  0.00     0.096 A 
ATOM      5  C3  UNK A          39.143  22.051  11.735  0.00  0.00     0.123 A 
ATOM      6  C5  UNK A          39.198  20.718  11.907  0.00  0.00     0.152 A 
ATOM      7  C6  UNK A          40.499  20.027  11.734  0.00  0.00     0.223 A 
ATOM      8  C7  UNK A          42.915  20.321  11.194  0.00  0.00     0.085 A 
ATOM      9  C8  UNK A          42.520  23.071  10.879  0.00  0.00     0.075 A 
ATOM     10  C9  UNK A          43.789  22.521  10.697  0.00  0.00     0.071 A 
ATOM     11  C11 UNK A          43.985  21.148  10.854  0.00  0.00     0.074 A 
ENDROOT
BRANCH   5  12
ATOM     12  C4  UNK A          37.893  22.817  11.881  0.00  0.00     0.004 A 
ATOM     13  C10 UNK A          37.033  22.964  10.792  0.00  0.00     0.053 A 
ATOM     14  C13 UNK A          35.849  23.688  10.931  0.00  0.00     0.099 A 
ATOM     15  C15 UNK A          35.526  24.268  12.158  0.00  0.00     0.098 A 
ATOM     16  C14 UNK A          36.386  24.121  13.247  0.00  0.00     0.040 A 
ATOM     17  C12 UNK A          37.569  23.396  13.108  0.00  0.00     0.017 A 
BRANCH  14  18
ATOM     18  O6  UNK A          35.018  23.826   9.861  0.00  0.00    -0.358 OA
ATOM     19  H9  UNK A          34.569  22.983   9.683  0.00  0.00     0.217 HD
ENDBRANCH  14  18
BRANCH  15  20
ATOM     20  O7  UNK A          34.372  24.976  12.307  0.00  0.00    -0.358 OA
ATOM     21  H10 UNK A          34.305  25.643  11.606  0.00  0.00     0.217 HD
ENDBRANCH  15  20
ENDBRANCH   5  12
BRANCH   6  22
ATOM     22  O2  UNK A          38.096  19.954  12.223  0.00  0.00    -0.355 OA
ATOM     23  H6  UNK A          37.910  20.018  13.174  0.00  0.00     0.218 HD
ENDBRANCH   6  22
BRANCH   8  24
ATOM     24  O3  UNK A          43.162  18.988  11.334  0.00  0.00    -0.360 OA
ATOM     25  H7  UNK A          42.834  18.499  10.565  0.00  0.00     0.217 HD
ENDBRANCH   8  24
BRANCH  10  26
ATOM     26  O5  UNK A          44.836  23.324  10.365  0.00  0.00    -0.361 OA
ATOM     27  H8  UNK A          44.792  23.523   9.413  0.00  0.00     0.217 HD
ENDBRANCH  10  26
TORSDOF 6
ENDMDL
MODEL 7
REMARK VINA RESULT:      -5.5      2.770      5.629
REMARK  6 active torsions:
REMARK  status: ('A' for Active; 'I' for Inactive)
REMARK    1  A    between atoms: O2_2  and  C5_12 
REMARK    2  A    between atoms: O3_3  and  C7_14 
REMARK    3  A    between atoms: O5_5  and  C9_16 
REMARK    4  A    between atoms: O6_6  and  C13_20 
REMARK    5  A    between atoms: O7_7  and  C15_22 
REMARK    6  A    between atoms: C3_10  and  C4_11 
ROOT
ATOM      1  O1  UNK A          43.674  20.269  10.543  0.00  0.00    -0.306 OA
ATOM      2  O4  UNK A          43.727  24.235  11.482  0.00  0.00    -0.284 OA
ATOM      3  C1  UNK A          42.463  22.262  11.215  0.00  0.00     0.084 A 
ATOM      4  C2  UNK A          42.511  20.909  10.883  0.00  0.00     0.096 A 
ATOM      5  C3  UNK A          44.855  20.997  10.543  0.00  0.00     0.123 A 
ATOM      6  C5  UNK A          44.943  22.307  10.836  0.00  0.00     0.152 A 
ATOM      7  C6  UNK A          43.709  23.043  11.204  0.00  0.00     0.223 A 
ATOM      8  C7  UNK A          41.247  22.862  11.552  0.00  0.00     0.085 A 
ATOM      9  C8  UNK A          41.342  20.148  10.884  0.00  0.00     0.075 A 
ATOM     10  C9  UNK A          40.126  20.744  11.220  0.00  0.00     0.071 A 
ATOM     11  C11 UNK A          40.079  22.098  11.553  0.00  0.00     0.074 A 
ENDROOT
BRANCH   5  12
ATOM     12  C4  UNK A          46.027  20.190  10.161  0.00  0.00     0.004 A 
ATOM     13  C10 UNK A          46.718  20.476   8.983  0.00  0.00     0.053 A 
ATOM     14  C13 UNK A          47.828  19.714   8.623  0.00  0.00     0.099 A 
ATOM     15  C15 UNK A          48.248  18.663   9.440  0.00  0.00     0.098 A 
ATOM     16  C14 UNK A          47.558  18.377  10.618  0.00  0.00     0.040 A 
ATOM     17  C12 UNK A          46.447  19.140  10.979  0.00  0.00     0.017 A 
BRANCH  14  18
ATOM     18  O6  UNK A          48.494  20.001   7.470  0.00  0.00    -0.358 OA
ATOM     19  H9  UNK A          47.996  20.659   6.959  0.00  0.00     0.217 HD
ENDBRANCH  14  18
BRANCH  15  20
ATOM     20  O7  UNK A          49.332  17.912   9.099  0.00  0.00    -0.358 OA
ATOM     21  H10 UNK A          49.068  17.220   8.473  0.00  0.00     0.217 HD
ENDBRANCH  15  20
ENDBRANCH   5  12
BRANCH   6  22
ATOM     22  O2  UNK A          46.128  23.009  10.795  0.00  0.00    -0.355 OA
ATOM     23  H6  UNK A          46.839  22.480  11.190  0.00  0.00     0.218 HD
ENDBRANCH   6  22
BRANCH   8  24
ATOM     24  O3  UNK A          41.145  24.179  11.885  0.00  0.00    -0.360 OA
ATOM     25  H7  UNK A          40.303  24.353  12.332  0.00  0.00     0.217 HD
ENDBRANCH   8  24
BRANCH  10  26
ATOM     26  O5  UNK A          38.985  20.003  11.222  0.00  0.00    -0.361 OA
ATOM     27  H8  UNK A          38.300  20.479  11.723  0.00  0.00     0.217 HD
ENDBRANCH  10  26
TORSDOF 6
ENDMDL
MODEL 8
REMARK VINA RESULT:      -5.5      2.525      5.969
REMARK  6 active torsions:
REMARK  status: ('A' for Active; 'I' for Inactive)
REMARK    1  A    between atoms: O2_2  and  C5_12 
REMARK    2  A    between atoms: O3_3  and  C7_14 
REMARK    3  A    between atoms: O5_5  and  C9_16 
REMARK    4  A    between atoms: O6_6  and  C13_20 
REMARK    5  A    between atoms: O7_7  and  C15_22 
REMARK    6  A    between atoms: C3_10  and  C4_11 
ROOT
ATOM      1  O1  UNK A          43.618  22.081  11.306  0.00  0.00    -0.306 OA
ATOM      2  O4  UNK A          40.080  20.089  10.956  0.00  0.00    -0.284 OA
ATOM      3  C1  UNK A          41.201  22.084  11.526  0.00  0.00     0.084 A 
ATOM      4  C2  UNK A          42.443  22.709  11.625  0.00  0.00     0.096 A 
ATOM      5  C3  UNK A          43.568  20.772  10.853  0.00  0.00     0.123 A 
ATOM      6  C5  UNK A          42.437  20.054  10.720  0.00  0.00     0.152 A 
ATOM      7  C6  UNK A          41.141  20.691  11.058  0.00  0.00     0.223 A 
ATOM      8  C7  UNK A          40.035  22.774  11.867  0.00  0.00     0.085 A 
ATOM      9  C8  UNK A          42.526  24.029  12.069  0.00  0.00     0.075 A 
ATOM     10  C9  UNK A          41.364  24.722  12.410  0.00  0.00     0.071 A 
ATOM     11  C11 UNK A          40.121  24.094  12.309  0.00  0.00     0.074 A 
ENDROOT
BRANCH   5  12
ATOM     12  C4  UNK A          44.898  20.217  10.546  0.00  0.00     0.004 A 
ATOM     13  C10 UNK A          45.606  20.675   9.434  0.00  0.00     0.053 A 
ATOM     14  C13 UNK A          46.865  20.151   9.144  0.00  0.00     0.099 A 
ATOM     15  C15 UNK A          47.416  19.167   9.966  0.00  0.00     0.098 A 
ATOM     16  C14 UNK A          46.709  18.709  11.077  0.00  0.00     0.040 A 
ATOM     17  C12 UNK A          45.450  19.234  11.367  0.00  0.00     0.017 A 
BRANCH  14  18
ATOM     18  O6  UNK A          47.546  20.604   8.056  0.00  0.00    -0.358 OA
ATOM     19  H9  UNK A          48.494  20.654   8.259  0.00  0.00     0.217 HD
ENDBRANCH  14  18
BRANCH  15  20
ATOM     20  O7  UNK A          48.647  18.648   9.694  0.00  0.00    -0.358 OA
ATOM     21  H10 UNK A          48.847  17.935  10.320  0.00  0.00     0.217 HD
ENDBRANCH  15  20
ENDBRANCH   5  12
BRANCH   6  22
ATOM     22  O2  UNK A          42.423  18.743  10.297  0.00  0.00    -0.355 OA
ATOM     23  H6  UNK A          43.154  18.589   9.675  0.00  0.00     0.218 HD
ENDBRANCH   6  22
BRANCH   8  24
ATOM     24  O3  UNK A          38.798  22.210  11.787  0.00  0.00    -0.360 OA
ATOM     25  H7  UNK A          38.165  22.698  12.336  0.00  0.00     0.217 HD
ENDBRANCH   8  24
BRANCH  10  26
ATOM     26  O5  UNK A          41.443  26.009  12.842  0.00  0.00    -0.361 OA
ATOM     27  H8  UNK A          40.687  26.508  12.488  0.00  0.00     0.217 HD
ENDBRANCH  10  26
TORSDOF 6
ENDMDL
MODEL 9
REMARK VINA RESULT:      -5.5      2.787      5.920
REMARK  6 active torsions:
REMARK  status: ('A' for Active; 'I' for Inactive)
REMARK    1  A    between atoms: O2_2  and  C5_12 
REMARK    2  A    between atoms: O3_3  and  C7_14 
REMARK    3  A    between atoms: O5_5  and  C9_16 
REMARK    4  A    between atoms: O6_6  and  C13_20 
REMARK    5  A    between atoms: O7_7  and  C15_22 
REMARK    6  A    between atoms: C3_10  and  C4_11 
ROOT
ATOM      1  O1  UNK A          44.163  20.899  10.174  0.00  0.00    -0.306 OA
ATOM      2  O4  UNK A          46.005  23.565  12.645  0.00  0.00    -0.284 OA
ATOM      3  C1  UNK A          46.184  22.071  10.829  0.00  0.00     0.084 A 
ATOM      4  C2  UNK A          45.497  21.170  10.018  0.00  0.00     0.096 A 
ATOM      5  C3  UNK A          43.465  21.561  11.172  0.00  0.00     0.123 A 
ATOM      6  C5  UNK A          44.011  22.446  12.026  0.00  0.00     0.152 A 
ATOM      7  C6  UNK A          45.453  22.767  11.899  0.00  0.00     0.223 A 
ATOM      8  C7  UNK A          47.546  22.306  10.624  0.00  0.00     0.085 A 
ATOM      9  C8  UNK A          46.169  20.495   8.998  0.00  0.00     0.075 A 
ATOM     10  C9  UNK A          47.529  20.727   8.791  0.00  0.00     0.071 A 
ATOM     11  C11 UNK A          48.215  21.631   9.603  0.00  0.00     0.074 A 
ENDROOT
BRANCH   5  12
ATOM     12  C4  UNK A          42.043  21.179  11.231  0.00  0.00     0.004 A 
ATOM     13  C10 UNK A          41.654  20.038  11.933  0.00  0.00     0.053 A 
ATOM     14  C13 UNK A          40.308  19.678  11.989  0.00  0.00     0.099 A 
ATOM     15  C15 UNK A          39.350  20.458  11.340  0.00  0.00     0.098 A 
ATOM     16  C14 UNK A          39.738  21.599  10.638  0.00  0.00     0.040 A 
ATOM     17  C12 UNK A          41.085  21.960  10.583  0.00  0.00     0.017 A 
BRANCH  14  18
ATOM     18  O6  UNK A          39.940  18.562  12.676  0.00  0.00    -0.358 OA
ATOM     19  H9  UNK A          40.483  18.475  13.476  0.00  0.00     0.217 HD
ENDBRANCH  14  18
BRANCH  15  20
ATOM     20  O7  UNK A          38.032  20.118  11.389  0.00  0.00    -0.358 OA
ATOM     21  H10 UNK A          37.522  20.836  11.795  0.00  0.00     0.217 HD
ENDBRANCH  15  20
ENDBRANCH   5  12
BRANCH   6  22
ATOM     22  O2  UNK A          43.296  23.063  13.030  0.00  0.00    -0.355 OA
ATOM     23  H6  UNK A          43.891  23.608  13.571  0.00  0.00     0.218 HD
ENDBRANCH   6  22
BRANCH   8  24
ATOM     24  O3  UNK A          48.264  23.177  11.388  0.00  0.00    -0.360 OA
ATOM     25  H7  UNK A          48.339  24.036  10.945  0.00  0.00     0.217 HD
ENDBRANCH   8  24
BRANCH  10  26
ATOM     26  O5  UNK A          48.186  20.072   7.797  0.00  0.00    -0.361 OA
ATOM     27  H8  UNK A          47.546  19.541   7.291  0.00  0.00     0.217 HD
ENDBRANCH  10  26
TORSDOF 6
ENDMDL
MODEL 10
REMARK VINA RESULT:      -5.5      2.055      6.861
REMARK  6 active torsions:
REMARK  status: ('A' for Active; 'I' for Inactive)
REMARK    1  A    between atoms: O2_2  and  C5_12 
REMARK    2  A    between atoms: O3_3  and  C7_14 
REMARK    3  A    between atoms: O5_5  and  C9_16 
REMARK    4  A    between atoms: O6_6  and  C13_20 
REMARK    5  A    between atoms: O7_7  and  C15_22 
REMARK    6  A    between atoms: C3_10  and  C4_11 
ROOT
ATOM      1  O1  UNK A          41.541  22.979  12.269  0.00  0.00    -0.306 OA
ATOM      2  O4  UNK A          44.678  25.276  11.048  0.00  0.00    -0.284 OA
ATOM      3  C1  UNK A          42.481  25.186  11.899  0.00  0.00     0.084 A 
ATOM      4  C2  UNK A          41.444  24.345  12.301  0.00  0.00     0.096 A 
ATOM      5  C3  UNK A          42.726  22.409  11.830  0.00  0.00     0.123 A 
ATOM      6  C5  UNK A          43.797  23.107  11.407  0.00  0.00     0.152 A 
ATOM      7  C6  UNK A          43.736  24.588  11.419  0.00  0.00     0.223 A 
ATOM      8  C7  UNK A          42.324  26.573  11.952  0.00  0.00     0.085 A 
ATOM      9  C8  UNK A          40.243  24.889  12.758  0.00  0.00     0.075 A 
ATOM     10  C9  UNK A          40.083  26.273  12.813  0.00  0.00     0.071 A 
ATOM     11  C11 UNK A          41.122  27.113  12.410  0.00  0.00     0.074 A 
ENDROOT
BRANCH   5  12
ATOM     12  C4  UNK A          42.697  20.936  11.846  0.00  0.00     0.004 A 
ATOM     13  C10 UNK A          43.176  20.240  12.956  0.00  0.00     0.053 A 
ATOM     14  C13 UNK A          43.147  18.846  12.971  0.00  0.00     0.099 A 
ATOM     15  C15 UNK A          42.641  18.147  11.875  0.00  0.00     0.098 A 
ATOM     16  C14 UNK A          42.163  18.843  10.765  0.00  0.00     0.040 A 
ATOM     17  C12 UNK A          42.191  20.237  10.750  0.00  0.00     0.017 A 
BRANCH  14  18
ATOM     18  O6  UNK A          43.618  18.177  14.060  0.00  0.00    -0.358 OA
ATOM     19  H9  UNK A          44.460  18.567  14.346  0.00  0.00     0.217 HD
ENDBRANCH  14  18
BRANCH  15  20
ATOM     20  O7  UNK A          42.607  16.785  11.879  0.00  0.00    -0.358 OA
ATOM     21  H10 UNK A          41.926  16.476  12.497  0.00  0.00     0.217 HD
ENDBRANCH  15  20
ENDBRANCH   5  12
BRANCH   6  22
ATOM     22  O2  UNK A          44.950  22.509  10.945  0.00  0.00    -0.355 OA
ATOM     23  H6  UNK A          45.235  22.937  10.121  0.00  0.00     0.218 HD
ENDBRANCH   6  22
BRANCH   8  24
ATOM     24  O3  UNK A          43.305  27.438  11.571  0.00  0.00    -0.360 OA
ATOM     25  H7  UNK A          43.435  28.124  12.244  0.00  0.00     0.217 HD
ENDBRANCH   8  24
BRANCH  10  26
ATOM     26  O5  UNK A          38.913  26.805  13.258  0.00  0.00    -0.361 OA
ATOM     27  H8  UNK A          38.899  27.756  13.054  0.00  0.00     0.217 HD
ENDBRANCH  10  26
TORSDOF 6
ENDMDL
MODEL 11
REMARK VINA RESULT:      -5.4      2.469      6.447
REMARK  6 active torsions:
REMARK  status: ('A' for Active; 'I' for Inactive)
REMARK    1  A    between atoms: O2_2  and  C5_12 
REMARK    2  A    between atoms: O3_3  and  C7_14 
REMARK    3  A    between atoms: O5_5  and  C9_16 
REMARK    4  A    between atoms: O6_6  and  C13_20 
REMARK    5  A    between atoms: O7_7  and  C15_22 
REMARK    6  A    between atoms: C3_10  and  C4_11 
ROOT
ATOM      1  O1  UNK A          44.858  22.990  10.770  0.00  0.00    -0.306 OA
ATOM      2  O4  UNK A          41.174  21.467  11.618  0.00  0.00    -0.284 OA
ATOM      3  C1  UNK A          42.571  23.364  11.490  0.00  0.00     0.084 A 
ATOM      4  C2  UNK A          43.851  23.822  11.185  0.00  0.00     0.096 A 
ATOM      5  C3  UNK A          44.586  21.638  10.633  0.00  0.00     0.123 A 
ATOM      6  C5  UNK A          43.397  21.068  10.902  0.00  0.00     0.152 A 
ATOM      7  C6  UNK A          42.279  21.928  11.360  0.00  0.00     0.223 A 
ATOM      8  C7  UNK A          41.583  24.258  11.911  0.00  0.00     0.085 A 
ATOM      9  C8  UNK A          44.153  25.179  11.303  0.00  0.00     0.075 A 
ATOM     10  C9  UNK A          43.170  26.075  11.723  0.00  0.00     0.071 A 
ATOM     11  C11 UNK A          41.888  25.615  12.026  0.00  0.00     0.074 A 
ENDROOT
BRANCH   5  12
ATOM     12  C4  UNK A          45.752  20.860  10.180  0.00  0.00     0.004 A 
ATOM     13  C10 UNK A          46.440  21.239   9.027  0.00  0.00     0.053 A 
ATOM     14  C13 UNK A          47.544  20.503   8.599  0.00  0.00     0.099 A 
ATOM     15  C15 UNK A          47.960  19.385   9.323  0.00  0.00     0.098 A 
ATOM     16  C14 UNK A          47.273  19.005  10.475  0.00  0.00     0.040 A 
ATOM     17  C12 UNK A          46.169  19.742  10.904  0.00  0.00     0.017 A 
BRANCH  14  18
ATOM     18  O6  UNK A          48.207  20.882   7.471  0.00  0.00    -0.358 OA
ATOM     19  H9  UNK A          48.759  20.149   7.153  0.00  0.00     0.217 HD
ENDBRANCH  14  18
BRANCH  15  20
ATOM     20  O7  UNK A          49.038  18.658   8.915  0.00  0.00    -0.358 OA
ATOM     21  H10 UNK A          49.318  18.060   9.626  0.00  0.00     0.217 HD
ENDBRANCH  15  20
ENDBRANCH   5  12
BRANCH   6  22
ATOM     22  O2  UNK A          43.168  19.714  10.787  0.00  0.00    -0.355 OA
ATOM     23  H6  UNK A          42.788  19.516   9.916  0.00  0.00     0.218 HD
ENDBRANCH   6  22
BRANCH   8  24
ATOM     24  O3  UNK A          40.317  23.862  12.220  0.00  0.00    -0.360 OA
ATOM     25  H7  UNK A          40.174  22.941  11.956  0.00  0.00     0.217 HD
ENDBRANCH   8  24
BRANCH  10  26
ATOM     26  O5  UNK A          43.462  27.399  11.838  0.00  0.00    -0.361 OA
ATOM     27  H8  UNK A          44.339  27.495  12.247  0.00  0.00     0.217 HD
ENDBRANCH  10  26
TORSDOF 6
ENDMDL
MODEL 12
REMARK VINA RESULT:      -5.4      1.557      7.101
REMARK  6 active torsions:
REMARK  status: ('A' for Active; 'I' for Inactive)
REMARK    1  A    between atoms: O2_2  and  C5_12 
REMARK    2  A    between atoms: O3_3  and  C7_14 
REMARK    3  A    between atoms: O5_5  and  C9_16 
REMARK    4  A    between atoms: O6_6  and  C13_20 
REMARK    5  A    between atoms: O7_7  and  C15_22 
REMARK    6  A    between atoms: C3_10  and  C4_11 
ROOT
ATOM      1  O1  UNK A          43.036  22.120  11.370  0.00  0.00    -0.306 OA
ATOM      2  O4  UNK A          43.168  24.289  14.818  0.00  0.00    -0.284 OA
ATOM      3  C1  UNK A          43.297  24.271  12.463  0.00  0.00     0.084 A 
ATOM      4  C2  UNK A          43.243  23.474  11.322  0.00  0.00     0.096 A 
ATOM      5  C3  UNK A          42.859  21.521  12.608  0.00  0.00     0.123 A 
ATOM      6  C5  UNK A          42.897  22.175  13.783  0.00  0.00     0.152 A 
ATOM      7  C6  UNK A          43.124  23.640  13.781  0.00  0.00     0.223 A 
ATOM      8  C7  UNK A          43.513  25.647  12.353  0.00  0.00     0.085 A 
ATOM      9  C8  UNK A          43.407  24.049  10.061  0.00  0.00     0.075 A 
ATOM     10  C9  UNK A          43.622  25.422   9.946  0.00  0.00     0.071 A 
ATOM     11  C11 UNK A          43.675  26.219  11.091  0.00  0.00     0.074 A 
ENDROOT
BRANCH   5  12
ATOM     12  C4  UNK A          42.645  20.066  12.517  0.00  0.00     0.004 A 
ATOM     13  C10 UNK A          41.392  19.525  12.803  0.00  0.00     0.053 A 
ATOM     14  C13 UNK A          41.189  18.148  12.716  0.00  0.00     0.099 A 
ATOM     15  C15 UNK A          42.242  17.311  12.345  0.00  0.00     0.098 A 
ATOM     16  C14 UNK A          43.495  17.851  12.059  0.00  0.00     0.040 A 
ATOM     17  C12 UNK A          43.698  19.229  12.145  0.00  0.00     0.017 A 
BRANCH  14  18
ATOM     18  O6  UNK A          39.962  17.632  12.999  0.00  0.00    -0.358 OA
ATOM     19  H9  UNK A          39.270  18.231  12.674  0.00  0.00     0.217 HD
ENDBRANCH  14  18
BRANCH  15  20
ATOM     20  O7  UNK A          42.056  15.964  12.256  0.00  0.00    -0.358 OA
ATOM     21  H10 UNK A          41.937  15.590  13.143  0.00  0.00     0.217 HD
ENDBRANCH  15  20
ENDBRANCH   5  12
BRANCH   6  22
ATOM     22  O2  UNK A          42.751  21.544  15.000  0.00  0.00    -0.355 OA
ATOM     23  H6  UNK A          43.443  20.871  15.108  0.00  0.00     0.218 HD
ENDBRANCH   6  22
BRANCH   8  24
ATOM     24  O3  UNK A          43.575  26.470  13.437  0.00  0.00    -0.360 OA
ATOM     25  H7  UNK A          42.727  26.479  13.906  0.00  0.00     0.217 HD
ENDBRANCH   8  24
BRANCH  10  26
ATOM     26  O5  UNK A          43.781  25.985   8.718  0.00  0.00    -0.361 OA
ATOM     27  H8  UNK A          42.905  26.158   8.334  0.00  0.00     0.217 HD
ENDBRANCH  10  26
TORSDOF 6
ENDMDL
MODEL 13
REMARK VINA RESULT:      -5.4      3.656      4.494
REMARK  6 active torsions:
REMARK  status: ('A' for Active; 'I' for Inactive)
REMARK    1  A    between atoms: O2_2  and  C5_12 
REMARK    2  A    between atoms: O3_3  and  C7_14 
REMARK    3  A    between atoms: O5_5  and  C9_16 
REMARK    4  A    between atoms: O6_6  and  C13_20 
REMARK    5  A    between atoms: O7_7  and  C15_22 
REMARK    6  A    between atoms: C3_10  and  C4_11 
ROOT
ATOM      1  O1  UNK A          39.836  19.864  12.158  0.00  0.00    -0.306 OA
ATOM      2  O4  UNK A          43.564  20.641  10.707  0.00  0.00    -0.284 OA
ATOM      3  C1  UNK A          42.120  19.129  11.798  0.00  0.00     0.084 A 
ATOM      4  C2  UNK A          40.827  18.925  12.275  0.00  0.00     0.096 A 
ATOM      5  C3  UNK A          40.130  21.063  11.527  0.00  0.00     0.123 A 
ATOM      6  C5  UNK A          41.339  21.387  11.032  0.00  0.00     0.152 A 
ATOM      7  C6  UNK A          42.443  20.404  11.140  0.00  0.00     0.223 A 
ATOM      8  C7  UNK A          43.091  18.135  11.947  0.00  0.00     0.085 A 
ATOM      9  C8  UNK A          40.497  17.725  12.905  0.00  0.00     0.075 A 
ATOM     10  C9  UNK A          41.463  16.730  13.055  0.00  0.00     0.071 A 
ATOM     11  C11 UNK A          42.758  16.936  12.577  0.00  0.00     0.074 A 
ENDROOT
BRANCH   5  12
ATOM     12  C4  UNK A          38.979  21.981  11.469  0.00  0.00     0.004 A 
ATOM     13  C10 UNK A          38.861  23.014  12.398  0.00  0.00     0.053 A 
ATOM     14  C13 UNK A          37.772  23.883  12.342  0.00  0.00     0.099 A 
ATOM     15  C15 UNK A          36.799  23.718  11.356  0.00  0.00     0.098 A 
ATOM     16  C14 UNK A          36.915  22.684  10.427  0.00  0.00     0.040 A 
ATOM     17  C12 UNK A          38.005  21.816  10.483  0.00  0.00     0.017 A 
BRANCH  14  18
ATOM     18  O6  UNK A          37.667  24.888  13.255  0.00  0.00    -0.358 OA
ATOM     19  H9  UNK A          38.443  24.883  13.840  0.00  0.00     0.217 HD
ENDBRANCH  14  18
BRANCH  15  20
ATOM     20  O7  UNK A          35.731  24.561  11.290  0.00  0.00    -0.358 OA
ATOM     21  H10 UNK A          35.900  25.347  11.833  0.00  0.00     0.217 HD
ENDBRANCH  15  20
ENDBRANCH   5  12
BRANCH   6  22
ATOM     22  O2  UNK A          41.608  22.602  10.439  0.00  0.00    -0.355 OA
ATOM     23  H6  UNK A          42.560  22.786  10.481  0.00  0.00     0.218 HD
ENDBRANCH   6  22
BRANCH   8  24
ATOM     24  O3  UNK A          44.370  18.284  11.499  0.00  0.00    -0.360 OA
ATOM     25  H7  UNK A          44.728  19.142  11.773  0.00  0.00     0.217 HD
ENDBRANCH   8  24
BRANCH  10  26
ATOM     26  O5  UNK A          41.143  15.559  13.669  0.00  0.00    -0.361 OA
ATOM     27  H8  UNK A          41.896  15.272  14.213  0.00  0.00     0.217 HD
ENDBRANCH  10  26
TORSDOF 6
ENDMDL
MODEL 14
REMARK VINA RESULT:      -5.4      2.507      4.435
REMARK  6 active torsions:
REMARK  status: ('A' for Active; 'I' for Inactive)
REMARK    1  A    between atoms: O2_2  and  C5_12 
REMARK    2  A    between atoms: O3_3  and  C7_14 
REMARK    3  A    between atoms: O5_5  and  C9_16 
REMARK    4  A    between atoms: O6_6  and  C13_20 
REMARK    5  A    between atoms: O7_7  and  C15_22 
REMARK    6  A    between atoms: C3_10  and  C4_11 
ROOT
ATOM      1  O1  UNK A          44.638  19.739  11.096  0.00  0.00    -0.306 OA
ATOM      2  O4  UNK A          41.585  22.439  11.099  0.00  0.00    -0.284 OA
ATOM      3  C1  UNK A          42.304  20.237  11.539  0.00  0.00     0.084 A 
ATOM      4  C2  UNK A          43.388  19.362  11.514  0.00  0.00     0.096 A 
ATOM      5  C3  UNK A          44.833  21.052  10.695  0.00  0.00     0.123 A 
ATOM      6  C5  UNK A          43.870  21.991  10.665  0.00  0.00     0.152 A 
ATOM      7  C6  UNK A          42.501  21.627  11.103  0.00  0.00     0.223 A 
ATOM      8  C7  UNK A          41.052  19.795  11.974  0.00  0.00     0.085 A 
ATOM      9  C8  UNK A          43.226  18.037  11.920  0.00  0.00     0.075 A 
ATOM     10  C9  UNK A          41.977  17.592  12.355  0.00  0.00     0.071 A 
ATOM     11  C11 UNK A          40.892  18.470  12.381  0.00  0.00     0.074 A 
ENDROOT
BRANCH   5  12
ATOM     12  C4  UNK A          46.218  21.324  10.273  0.00  0.00     0.004 A 
ATOM     13  C10 UNK A          46.607  21.081   8.955  0.00  0.00     0.053 A 
ATOM     14  C13 UNK A          47.918  21.340   8.555  0.00  0.00     0.099 A 
ATOM     15  C15 UNK A          48.841  21.841   9.474  0.00  0.00     0.098 A 
ATOM     16  C14 UNK A          48.453  22.084  10.791  0.00  0.00     0.040 A 
ATOM     17  C12 UNK A          47.141  21.825  11.191  0.00  0.00     0.017 A 
BRANCH  14  18
ATOM     18  O6  UNK A          48.286  21.098   7.267  0.00  0.00    -0.358 OA
ATOM     19  H9  UNK A          47.574  21.369   6.665  0.00  0.00     0.217 HD
ENDBRANCH  14  18
BRANCH  15  20
ATOM     20  O7  UNK A          50.124  22.099   9.095  0.00  0.00    -0.358 OA
ATOM     21  H10 UNK A          50.365  23.004   9.350  0.00  0.00     0.217 HD
ENDBRANCH  15  20
ENDBRANCH   5  12
BRANCH   6  22
ATOM     22  O2  UNK A          44.090  23.280  10.230  0.00  0.00    -0.355 OA
ATOM     23  H6  UNK A          44.699  23.734  10.835  0.00  0.00     0.218 HD
ENDBRANCH   6  22
BRANCH   8  24
ATOM     24  O3  UNK A          39.960  20.609  12.019  0.00  0.00    -0.360 OA
ATOM     25  H7  UNK A          39.421  20.499  11.221  0.00  0.00     0.217 HD
ENDBRANCH   8  24
BRANCH  10  26
ATOM     26  O5  UNK A          41.816  16.301  12.753  0.00  0.00    -0.361 OA
ATOM     27  H8  UNK A          40.974  16.221  13.233  0.00  0.00     0.217 HD
ENDBRANCH  10  26
TORSDOF 6
ENDMDL
MODEL 15
REMARK VINA RESULT:      -5.4      5.582      6.847
REMARK  6 active torsions:
REMARK  status: ('A' for Active; 'I' for Inactive)
REMARK    1  A    between atoms: O2_2  and  C5_12 
REMARK    2  A    between atoms: O3_3  and  C7_14 
REMARK    3  A    between atoms: O5_5  and  C9_16 
REMARK    4  A    between atoms: O6_6  and  C13_20 
REMARK    5  A    between atoms: O7_7  and  C15_22 
REMARK    6  A    between atoms: C3_10  and  C4_11 
ROOT
ATOM      1  O1  UNK A          38.564  22.032  11.353  0.00  0.00    -0.306 OA
ATOM      2  O4  UNK A          41.272  24.713  12.798  0.00  0.00    -0.284 OA
ATOM      3  C1  UNK A          40.877  22.606  11.814  0.00  0.00     0.084 A 
ATOM      4  C2  UNK A          39.901  21.733  11.336  0.00  0.00     0.096 A 
ATOM      5  C3  UNK A          38.167  23.261  11.854  0.00  0.00     0.123 A 
ATOM      6  C5  UNK A          39.005  24.189  12.352  0.00  0.00     0.152 A 
ATOM      7  C6  UNK A          40.461  23.907  12.360  0.00  0.00     0.223 A 
ATOM      8  C7  UNK A          42.226  22.247  11.773  0.00  0.00     0.085 A 
ATOM      9  C8  UNK A          40.271  20.492  10.816  0.00  0.00     0.075 A 
ATOM     10  C9  UNK A          41.617  20.130  10.773  0.00  0.00     0.071 A 
ATOM     11  C11 UNK A          42.593  21.006  11.251  0.00  0.00     0.074 A 
ENDROOT
BRANCH   5  12
ATOM     12  C4  UNK A          36.707  23.455  11.813  0.00  0.00     0.004 A 
ATOM     13  C10 UNK A          36.130  24.212  10.793  0.00  0.00     0.053 A 
ATOM     14  C13 UNK A          34.749  24.394  10.754  0.00  0.00     0.099 A 
ATOM     15  C15 UNK A          33.942  23.820  11.737  0.00  0.00     0.098 A 
ATOM     16  C14 UNK A          34.517  23.063  12.757  0.00  0.00     0.040 A 
ATOM     17  C12 UNK A          35.900  22.880  12.796  0.00  0.00     0.017 A 
BRANCH  14  18
ATOM     18  O6  UNK A          34.198  25.136   9.754  0.00  0.00    -0.358 OA
ATOM     19  H9  UNK A          34.885  25.671   9.325  0.00  0.00     0.217 HD
ENDBRANCH  14  18
BRANCH  15  20
ATOM     20  O7  UNK A          32.590  23.989  11.708  0.00  0.00    -0.358 OA
ATOM     21  H10 UNK A          32.289  24.066  10.789  0.00  0.00     0.217 HD
ENDBRANCH  15  20
ENDBRANCH   5  12
BRANCH   6  22
ATOM     22  O2  UNK A          38.575  25.390  12.874  0.00  0.00    -0.355 OA
ATOM     23  H6  UNK A          39.042  26.124  12.442  0.00  0.00     0.218 HD
ENDBRANCH   6  22
BRANCH   8  24
ATOM     24  O3  UNK A          43.218  23.063  12.227  0.00  0.00    -0.360 OA
ATOM     25  H7  UNK A          43.078  23.282  13.160  0.00  0.00     0.217 HD
ENDBRANCH   8  24
BRANCH  10  26
ATOM     26  O5  UNK A          41.980  18.920  10.266  0.00  0.00    -0.361 OA
ATOM     27  H8  UNK A          41.191  18.479   9.907  0.00  0.00     0.217 HD
ENDBRANCH  10  26
TORSDOF 6
ENDMDL
MODEL 16
REMARK VINA RESULT:      -5.4      4.698      7.810
REMARK  6 active torsions:
REMARK  status: ('A' for Active; 'I' for Inactive)
REMARK    1  A    between atoms: O2_2  and  C5_12 
REMARK    2  A    between atoms: O3_3  and  C7_14 
REMARK    3  A    between atoms: O5_5  and  C9_16 
REMARK    4  A    between atoms: O6_6  and  C13_20 
REMARK    5  A    between atoms: O7_7  and  C15_22 
REMARK    6  A    between atoms: C3_10  and  C4_11 
ROOT
ATOM      1  O1  UNK A          38.144  22.262  11.594  0.00  0.00    -0.306 OA
ATOM      2  O4  UNK A          39.787  25.664  13.123  0.00  0.00    -0.284 OA
ATOM      3  C1  UNK A          37.993  24.655  11.973  0.00  0.00     0.084 A 
ATOM      4  C2  UNK A          37.486  23.458  11.471  0.00  0.00     0.096 A 
ATOM      5  C3  UNK A          39.361  22.242  12.258  0.00  0.00     0.123 A 
ATOM      6  C5  UNK A          39.963  23.327  12.780  0.00  0.00     0.152 A 
ATOM      7  C6  UNK A          39.290  24.643  12.666  0.00  0.00     0.223 A 
ATOM      8  C7  UNK A          37.277  25.844  11.816  0.00  0.00     0.085 A 
ATOM      9  C8  UNK A          36.258  23.444  10.807  0.00  0.00     0.075 A 
ATOM     10  C9  UNK A          35.541  24.630  10.649  0.00  0.00     0.071 A 
ATOM     11  C11 UNK A          36.050  25.827  11.153  0.00  0.00     0.074 A 
ENDROOT
BRANCH   5  12
ATOM     12  C4  UNK A          39.961  20.898  12.320  0.00  0.00     0.004 A 
ATOM     13  C10 UNK A          40.802  20.460  11.296  0.00  0.00     0.053 A 
ATOM     14  C13 UNK A          41.370  19.188  11.356  0.00  0.00     0.099 A 
ATOM     15  C15 UNK A          41.096  18.352  12.439  0.00  0.00     0.098 A 
ATOM     16  C14 UNK A          40.255  18.789  13.462  0.00  0.00     0.040 A 
ATOM     17  C12 UNK A          39.687  20.062  13.403  0.00  0.00     0.017 A 
BRANCH  14  18
ATOM     18  O6  UNK A          42.189  18.771  10.351  0.00  0.00    -0.358 OA
ATOM     19  H9  UNK A          43.063  18.549  10.710  0.00  0.00     0.217 HD
ENDBRANCH  14  18
BRANCH  15  20
ATOM     20  O7  UNK A          41.646  17.107  12.509  0.00  0.00    -0.358 OA
ATOM     21  H10 UNK A          41.751  16.848  13.437  0.00  0.00     0.217 HD
ENDBRANCH  15  20
ENDBRANCH   5  12
BRANCH   6  22
ATOM     22  O2  UNK A          41.190  23.278  13.406  0.00  0.00    -0.355 OA
ATOM     23  H6  UNK A          41.893  23.485  12.769  0.00  0.00     0.218 HD
ENDBRANCH   6  22
BRANCH   8  24
ATOM     24  O3  UNK A          37.728  27.041  12.287  0.00  0.00    -0.360 OA
ATOM     25  H7  UNK A          37.227  27.308  13.073  0.00  0.00     0.217 HD
ENDBRANCH   8  24
BRANCH  10  26
ATOM     26  O5  UNK A          34.344  24.618  10.003  0.00  0.00    -0.361 OA
ATOM     27  H8  UNK A          33.829  23.850  10.304  0.00  0.00     0.217 HD
ENDBRANCH  10  26
TORSDOF 6
ENDMDL
MODEL 17
REMARK VINA RESULT:      -5.3      3.488      5.580
REMARK  6 active torsions:
REMARK  status: ('A' for Active; 'I' for Inactive)
REMARK    1  A    between atoms: O2_2  and  C5_12 
REMARK    2  A    between atoms: O3_3  and  C7_14 
REMARK    3  A    between atoms: O5_5  and  C9_16 
REMARK    4  A    between atoms: O6_6  and  C13_20 
REMARK    5  A    between atoms: O7_7  and  C15_22 
REMARK    6  A    between atoms: C3_10  and  C4_11 
ROOT
ATOM      1  O1  UNK A          40.896  25.103  12.595  0.00  0.00    -0.306 OA
ATOM      2  O4  UNK A          44.500  25.564  10.750  0.00  0.00    -0.284 OA
ATOM      3  C1  UNK A          42.731  24.123  11.345  0.00  0.00     0.084 A 
ATOM      4  C2  UNK A          41.500  24.031  11.993  0.00  0.00     0.096 A 
ATOM      5  C3  UNK A          41.530  26.334  12.545  0.00  0.00     0.123 A 
ATOM      6  C5  UNK A          42.721  26.556  11.960  0.00  0.00     0.152 A 
ATOM      7  C6  UNK A          43.415  25.424  11.300  0.00  0.00     0.223 A 
ATOM      8  C7  UNK A          43.300  22.994  10.750  0.00  0.00     0.085 A 
ATOM      9  C8  UNK A          40.832  22.807  12.051  0.00  0.00     0.075 A 
ATOM     10  C9  UNK A          41.398  21.678  11.458  0.00  0.00     0.071 A 
ATOM     11  C11 UNK A          42.630  21.773  10.809  0.00  0.00     0.074 A 
ENDROOT
BRANCH   5  12
ATOM     12  C4  UNK A          40.774  27.399  13.228  0.00  0.00     0.004 A 
ATOM     13  C10 UNK A          39.677  27.990  12.601  0.00  0.00     0.053 A 
ATOM     14  C13 UNK A          38.961  28.996  13.248  0.00  0.00     0.099 A 
ATOM     15  C15 UNK A          39.343  29.413  14.524  0.00  0.00     0.098 A 
ATOM     16  C14 UNK A          40.439  28.823  15.152  0.00  0.00     0.040 A 
ATOM     17  C12 UNK A          41.155  27.815  14.504  0.00  0.00     0.017 A 
BRANCH  14  18
ATOM     18  O6  UNK A          37.893  29.567  12.625  0.00  0.00    -0.358 OA
ATOM     19  H9  UNK A          37.079  29.102  12.876  0.00  0.00     0.217 HD
ENDBRANCH  14  18
BRANCH  15  20
ATOM     20  O7  UNK A          38.651  30.395  15.167  0.00  0.00    -0.358 OA
ATOM     21  H10 UNK A          38.542  30.160  16.102  0.00  0.00     0.217 HD
ENDBRANCH  15  20
ENDBRANCH   5  12
BRANCH   6  22
ATOM     22  O2  UNK A          43.341  27.787  11.956  0.00  0.00    -0.355 OA
ATOM     23  H6  UNK A          42.674  28.492  11.993  0.00  0.00     0.218 HD
ENDBRANCH   6  22
BRANCH   8  24
ATOM     24  O3  UNK A          44.500  23.031  10.105  0.00  0.00    -0.360 OA
ATOM     25  H7  UNK A          44.941  22.169  10.158  0.00  0.00     0.217 HD
ENDBRANCH   8  24
BRANCH  10  26
ATOM     26  O5  UNK A          40.748  20.484  11.513  0.00  0.00    -0.361 OA
ATOM     27  H8  UNK A          41.005  20.022  12.330  0.00  0.00     0.217 HD
ENDBRANCH  10  26
TORSDOF 6
ENDMDL
MODEL 18
REMARK VINA RESULT:      -5.3      6.669      7.856
REMARK  6 active torsions:
REMARK  status: ('A' for Active; 'I' for Inactive)
REMARK    1  A    between atoms: O2_2  and  C5_12 
REMARK    2  A    between atoms: O3_3  and  C7_14 
REMARK    3  A    between atoms: O5_5  and  C9_16 
REMARK    4  A    between atoms: O6_6  and  C13_20 
REMARK    5  A    between atoms: O7_7  and  C15_22 
REMARK    6  A    between atoms: C3_10  and  C4_11 
ROOT
ATOM      1  O1  UNK A          37.111  22.772  10.951  0.00  0.00    -0.306 OA
ATOM      2  O4  UNK A          37.083  21.620  14.860  0.00  0.00    -0.284 OA
ATOM      3  C1  UNK A          38.076  21.432  12.729  0.00  0.00     0.084 A 
ATOM      4  C2  UNK A          38.032  21.865  11.405  0.00  0.00     0.096 A 
ATOM      5  C3  UNK A          36.192  23.291  11.850  0.00  0.00     0.123 A 
ATOM      6  C5  UNK A          36.122  22.950  13.150  0.00  0.00     0.152 A 
ATOM      7  C6  UNK A          37.096  21.967  13.686  0.00  0.00     0.223 A 
ATOM      8  C7  UNK A          39.037  20.503  13.135  0.00  0.00     0.085 A 
ATOM      9  C8  UNK A          38.949  21.369  10.478  0.00  0.00     0.075 A 
ATOM     10  C9  UNK A          39.911  20.442  10.880  0.00  0.00     0.071 A 
ATOM     11  C11 UNK A          39.954  20.010  12.206  0.00  0.00     0.074 A 
ENDROOT
BRANCH   5  12
ATOM     12  C4  UNK A          35.263  24.253  11.233  0.00  0.00     0.004 A 
ATOM     13  C10 UNK A          35.721  25.143  10.262  0.00  0.00     0.053 A 
ATOM     14  C13 UNK A          34.841  26.053   9.678  0.00  0.00     0.099 A 
ATOM     15  C15 UNK A          33.501  26.074  10.066  0.00  0.00     0.098 A 
ATOM     16  C14 UNK A          33.041  25.184  11.037  0.00  0.00     0.040 A 
ATOM     17  C12 UNK A          33.922  24.273  11.621  0.00  0.00     0.017 A 
BRANCH  14  18
ATOM     18  O6  UNK A          35.300  26.918   8.732  0.00  0.00    -0.358 OA
ATOM     19  H9  UNK A          34.578  27.496   8.437  0.00  0.00     0.217 HD
ENDBRANCH  14  18
BRANCH  15  20
ATOM     20  O7  UNK A          32.630  26.957   9.501  0.00  0.00    -0.358 OA
ATOM     21  H10 UNK A          32.702  26.914   8.534  0.00  0.00     0.217 HD
ENDBRANCH  15  20
ENDBRANCH   5  12
BRANCH   6  22
ATOM     22  O2  UNK A          35.175  23.459  14.012  0.00  0.00    -0.355 OA
ATOM     23  H6  UNK A          34.563  22.756  14.283  0.00  0.00     0.218 HD
ENDBRANCH   6  22
BRANCH   8  24
ATOM     24  O3  UNK A          39.123  20.047  14.416  0.00  0.00    -0.360 OA
ATOM     25  H7  UNK A          39.368  20.767  15.018  0.00  0.00     0.217 HD
ENDBRANCH   8  24
BRANCH  10  26
ATOM     26  O5  UNK A          40.807  19.958   9.978  0.00  0.00    -0.361 OA
ATOM     27  H8  UNK A          40.332  19.435   9.310  0.00  0.00     0.217 HD
ENDBRANCH  10  26
TORSDOF 6
ENDMDL
MODEL 19
REMARK VINA RESULT:      -5.3      2.971      4.482
REMARK  6 active torsions:
REMARK  status: ('A' for Active; 'I' for Inactive)
REMARK    1  A    between atoms: O2_2  and  C5_12 
REMARK    2  A    between atoms: O3_3  and  C7_14 
REMARK    3  A    between atoms: O5_5  and  C9_16 
REMARK    4  A    between atoms: O6_6  and  C13_20 
REMARK    5  A    between atoms: O7_7  and  C15_22 
REMARK    6  A    between atoms: C3_10  and  C4_11 
ROOT
ATOM      1  O1  UNK A          43.561  21.084  10.706  0.00  0.00    -0.306 OA
ATOM      2  O4  UNK A          42.918  17.421  12.372  0.00  0.00    -0.284 OA
ATOM      3  C1  UNK A          42.009  19.472  11.645  0.00  0.00     0.084 A 
ATOM      4  C2  UNK A          42.295  20.710  11.072  0.00  0.00     0.096 A 
ATOM      5  C3  UNK A          44.599  20.187  10.901  0.00  0.00     0.123 A 
ATOM      6  C5  UNK A          44.459  18.966  11.451  0.00  0.00     0.152 A 
ATOM      7  C6  UNK A          43.108  18.520  11.868  0.00  0.00     0.223 A 
ATOM      8  C7  UNK A          40.698  19.146  12.001  0.00  0.00     0.085 A 
ATOM      9  C8  UNK A          41.270  21.631  10.853  0.00  0.00     0.075 A 
ATOM     10  C9  UNK A          39.959  21.309  11.207  0.00  0.00     0.071 A 
ATOM     11  C11 UNK A          39.675  20.068  11.780  0.00  0.00     0.074 A 
ENDROOT
BRANCH   5  12
ATOM     12  C4  UNK A          45.905  20.713  10.465  0.00  0.00     0.004 A 
ATOM     13  C10 UNK A          46.402  20.387   9.202  0.00  0.00     0.053 A 
ATOM     14  C13 UNK A          47.637  20.886   8.789  0.00  0.00     0.099 A 
ATOM     15  C15 UNK A          48.376  21.710   9.639  0.00  0.00     0.098 A 
ATOM     16  C14 UNK A          47.879  22.035  10.900  0.00  0.00     0.040 A 
ATOM     17  C12 UNK A          46.644  21.537  11.314  0.00  0.00     0.017 A 
BRANCH  14  18
ATOM     18  O6  UNK A          48.113  20.561   7.555  0.00  0.00    -0.358 OA
ATOM     19  H9  UNK A          47.794  19.679   7.302  0.00  0.00     0.217 HD
ENDBRANCH  14  18
BRANCH  15  20
ATOM     20  O7  UNK A          49.583  22.205   9.245  0.00  0.00    -0.358 OA
ATOM     21  H10 UNK A          49.650  23.140   9.494  0.00  0.00     0.217 HD
ENDBRANCH  15  20
ENDBRANCH   5  12
BRANCH   6  22
ATOM     22  O2  UNK A          45.518  18.110  11.662  0.00  0.00    -0.355 OA
ATOM     23  H6  UNK A          45.931  17.880  10.814  0.00  0.00     0.218 HD
ENDBRANCH   6  22
BRANCH   8  24
ATOM     24  O3  UNK A          40.365  17.950  12.563  0.00  0.00    -0.360 OA
ATOM     25  H7  UNK A          41.035  17.681  13.210  0.00  0.00     0.217 HD
ENDBRANCH   8  24
BRANCH  10  26
ATOM     26  O5  UNK A          38.958  22.205  10.994  0.00  0.00    -0.361 OA
ATOM     27  H8  UNK A          38.261  21.780  10.464  0.00  0.00     0.217 HD
ENDBRANCH  10  26
TORSDOF 6
ENDMDL
MODEL 20
REMARK VINA RESULT:      -5.3      2.748      4.732
REMARK  6 active torsions:
REMARK  status: ('A' for Active; 'I' for Inactive)
REMARK    1  A    between atoms: O2_2  and  C5_12 
REMARK    2  A    between atoms: O3_3  and  C7_14 
REMARK    3  A    between atoms: O5_5  and  C9_16 
REMARK    4  A    between atoms: O6_6  and  C13_20 
REMARK    5  A    between atoms: O7_7  and  C15_22 
REMARK    6  A    between atoms: C3_10  and  C4_11 
ROOT
ATOM      1  O1  UNK A          41.952  21.239  10.688  0.00  0.00    -0.306 OA
ATOM      2  O4  UNK A          41.110  18.860  13.888  0.00  0.00    -0.284 OA
ATOM      3  C1  UNK A          40.299  20.247  12.162  0.00  0.00     0.084 A 
ATOM      4  C2  UNK A          40.653  21.049  11.078  0.00  0.00     0.096 A 
ATOM      5  C3  UNK A          42.957  20.595  11.394  0.00  0.00     0.123 A 
ATOM      6  C5  UNK A          42.750  19.802  12.461  0.00  0.00     0.152 A 
ATOM      7  C6  UNK A          41.360  19.572  12.924  0.00  0.00     0.223 A 
ATOM      8  C7  UNK A          38.956  20.092  12.515  0.00  0.00     0.085 A 
ATOM      9  C8  UNK A          39.664  21.702  10.341  0.00  0.00     0.075 A 
ATOM     10  C9  UNK A          38.322  21.549  10.691  0.00  0.00     0.071 A 
ATOM     11  C11 UNK A          37.970  20.745  11.776  0.00  0.00     0.074 A 
ENDROOT
BRANCH   5  12
ATOM     12  C4  UNK A          44.303  20.884  10.871  0.00  0.00     0.004 A 
ATOM     13  C10 UNK A          44.982  22.031  11.282  0.00  0.00     0.053 A 
ATOM     14  C13 UNK A          46.257  22.303  10.788  0.00  0.00     0.099 A 
ATOM     15  C15 UNK A          46.854  21.428   9.880  0.00  0.00     0.098 A 
ATOM     16  C14 UNK A          46.177  20.281   9.468  0.00  0.00     0.040 A 
ATOM     17  C12 UNK A          44.901  20.008   9.963  0.00  0.00     0.017 A 
BRANCH  14  18
ATOM     18  O6  UNK A          46.909  23.427  11.196  0.00  0.00    -0.358 OA
ATOM     19  H9  UNK A          47.228  23.310  12.106  0.00  0.00     0.217 HD
ENDBRANCH  14  18
BRANCH  15  20
ATOM     20  O7  UNK A          48.100  21.683   9.391  0.00  0.00    -0.358 OA
ATOM     21  H10 UNK A          48.506  22.409   9.891  0.00  0.00     0.217 HD
ENDBRANCH  15  20
ENDBRANCH   5  12
BRANCH   6  22
ATOM     22  O2  UNK A          43.774  19.202  13.162  0.00  0.00    -0.355 OA
ATOM     23  H6  UNK A          43.562  19.189  14.110  0.00  0.00     0.218 HD
ENDBRANCH   6  22
BRANCH   8  24
ATOM     24  O3  UNK A          38.557  19.320  13.565  0.00  0.00    -0.360 OA
ATOM     25  H7  UNK A          39.213  18.630  13.748  0.00  0.00     0.217 HD
ENDBRANCH   8  24
BRANCH  10  26
ATOM     26  O5  UNK A          37.357  22.184   9.974  0.00  0.00    -0.361 OA
ATOM     27  H8  UNK A          37.256  21.739   9.114  0.00  0.00     0.217 HD
ENDBRANCH  10  26
TORSDOF 6
ENDMDL
