MODEL 1
REMARK VINA RESULT:      -7.5      0.000      0.000
REMARK  11 active torsions:
REMARK  status: ('A' for Active; 'I' for Inactive)
REMARK    1  A    between atoms: C3_3  and  C2_2 
REMARK    2  A    between atoms: C4_4  and  C3_3 
REMARK    3  A    between atoms: C5_5  and  C4_4 
REMARK    4  A    between atoms: C6_6  and  C5_5 
REMARK    5  A    between atoms: C7_7  and  C6_6 
REMARK    6  A    between atoms: C8_8  and  C7_7 
REMARK    7  A    between atoms: C9_9  and  C8_8 
REMARK    8  A    between atoms: C10_10  and  C9_9 
REMARK    9  A    between atoms: C11_12  and  C10_10 
REMARK   10  A    between atoms: C11_12  and  C12_13 
REMARK       I    between atoms: C12_13  and  N1_15 
REMARK   11  A    between atoms: C13_16  and  N1_15 
ROOT
ATOM      1  C10 OHN d          39.800  16.860  -1.520  0.00  0.00     0.135 C 
ATOM      2  O1  OHN d          39.672  17.161  -0.346  0.00  0.00    -0.297 OA
ENDROOT
BRANCH   1   3
ATOM      3  C11 OHN d          39.697  15.444  -1.981  0.00  0.00     0.181 C 
BRANCH   3   4
ATOM      4  C12 OHN d          40.578  14.554  -1.144  0.00  0.00     0.225 C 
ATOM      5  N1  OHN d          40.020  13.617  -0.388  0.00  0.00    -0.347 N 
ATOM      6  H19 OHN d          39.019  13.498  -0.338  0.00  0.00     0.163 HD
ATOM      7  O2  OHN d          41.771  14.735  -1.192  0.00  0.00    -0.273 OA
BRANCH   5   8
ATOM      8  C13 OHN d          40.921  12.783   0.355  0.00  0.00     0.186 C 
ATOM      9  C14 OHN d          40.410  12.350   1.727  0.00  0.00     0.062 C 
ATOM     10  C15 OHN d          40.820  10.881   1.930  0.00  0.00     0.181 C 
ATOM     11  O4  OHN d          41.078  10.383   0.630  0.00  0.00    -0.320 OA
ATOM     12  C16 OHN d          41.143  11.469  -0.290  0.00  0.00     0.281 C 
ATOM     13  O3  OHN d          41.371  11.320  -1.460  0.00  0.00    -0.263 OA
ENDBRANCH   5   8
ENDBRANCH   3   4
ENDBRANCH   1   3
BRANCH   1  14
ATOM     14  C9  OHN d          40.126  17.906  -2.537  0.00  0.00     0.079 C 
BRANCH  14  15
ATOM     15  C8  OHN d          40.529  17.307  -3.863  0.00  0.00     0.007 C 
BRANCH  15  16
ATOM     16  C7  OHN d          40.995  18.492  -4.695  0.00  0.00     0.000 C 
BRANCH  16  17
ATOM     17  C6  OHN d          41.012  18.117  -6.181  0.00  0.00     0.000 C 
BRANCH  17  18
ATOM     18  C5  OHN d          41.962  19.059  -6.905  0.00  0.00     0.000 C 
BRANCH  18  19
ATOM     19  C4  OHN d          42.973  18.257  -7.695  0.00  0.00     0.000 C 
BRANCH  19  20
ATOM     20  C3  OHN d          42.258  17.335  -8.664  0.00  0.00    -0.000 C 
BRANCH  20  21
ATOM     21  C2  OHN d          43.253  16.773  -9.654  0.00  0.00    -0.005 C 
ATOM     22  C1  OHN d          42.865  15.344  -9.915  0.00  0.00     0.005 C 
ENDBRANCH  20  21
ENDBRANCH  19  20
ENDBRANCH  18  19
ENDBRANCH  17  18
ENDBRANCH  16  17
ENDBRANCH  15  16
ENDBRANCH  14  15
ENDBRANCH   1  14
TORSDOF 11
ENDMDL
MODEL 2
REMARK VINA RESULT:      -6.4      2.246      5.008
REMARK  11 active torsions:
REMARK  status: ('A' for Active; 'I' for Inactive)
REMARK    1  A    between atoms: C3_3  and  C2_2 
REMARK    2  A    between atoms: C4_4  and  C3_3 
REMARK    3  A    between atoms: C5_5  and  C4_4 
REMARK    4  A    between atoms: C6_6  and  C5_5 
REMARK    5  A    between atoms: C7_7  and  C6_6 
REMARK    6  A    between atoms: C8_8  and  C7_7 
REMARK    7  A    between atoms: C9_9  and  C8_8 
REMARK    8  A    between atoms: C10_10  and  C9_9 
REMARK    9  A    between atoms: C11_12  and  C10_10 
REMARK   10  A    between atoms: C11_12  and  C12_13 
REMARK       I    between atoms: C12_13  and  N1_15 
REMARK   11  A    between atoms: C13_16  and  N1_15 
ROOT
ATOM      1  C10 OHN d          40.804  14.522  -1.737  0.00  0.00     0.135 C 
ATOM      2  O1  OHN d          40.617  13.351  -2.020  0.00  0.00    -0.297 OA
ENDROOT
BRANCH   1   3
ATOM      3  C11 OHN d          40.480  15.061  -0.383  0.00  0.00     0.181 C 
BRANCH   3   4
ATOM      4  C12 OHN d          39.457  16.162  -0.487  0.00  0.00     0.225 C 
ATOM      5  N1  OHN d          39.826  17.414  -0.251  0.00  0.00    -0.347 N 
ATOM      6  H19 OHN d          40.770  17.650   0.020  0.00  0.00     0.163 HD
ATOM      7  O2  OHN d          38.326  15.855  -0.781  0.00  0.00    -0.273 OA
BRANCH   5   8
ATOM      8  C13 OHN d          38.810  18.415  -0.404  0.00  0.00     0.186 C 
ATOM      9  C14 OHN d          38.150  18.864   0.898  0.00  0.00     0.062 C 
ATOM     10  C15 OHN d          37.945  20.385   0.812  0.00  0.00     0.181 C 
ATOM     11  O4  OHN d          38.841  20.826  -0.192  0.00  0.00    -0.320 OA
ATOM     12  C16 OHN d          39.346  19.700  -0.905  0.00  0.00     0.281 C 
ATOM     13  O3  OHN d          40.113  19.801  -1.824  0.00  0.00    -0.263 OA
ENDBRANCH   5   8
ENDBRANCH   3   4
ENDBRANCH   1   3
BRANCH   1  14
ATOM     14  C9  OHN d          41.314  15.477  -2.767  0.00  0.00     0.079 C 
BRANCH  14  15
ATOM     15  C8  OHN d          40.209  16.010  -3.648  0.00  0.00     0.007 C 
BRANCH  15  16
ATOM     16  C7  OHN d          40.552  17.477  -3.851  0.00  0.00     0.000 C 
BRANCH  16  17
ATOM     17  C6  OHN d          40.476  17.835  -5.339  0.00  0.00     0.000 C 
BRANCH  17  18
ATOM     18  C5  OHN d          41.665  18.718  -5.685  0.00  0.00     0.000 C 
BRANCH  18  19
ATOM     19  C4  OHN d          41.678  18.999  -7.171  0.00  0.00     0.000 C 
BRANCH  19  20
ATOM     20  C3  OHN d          42.763  18.180  -7.842  0.00  0.00    -0.000 C 
BRANCH  20  21
ATOM     21  C2  OHN d          42.130  17.101  -8.691  0.00  0.00    -0.005 C 
ATOM     22  C1  OHN d          43.182  16.610  -9.647  0.00  0.00     0.005 C 
ENDBRANCH  20  21
ENDBRANCH  19  20
ENDBRANCH  18  19
ENDBRANCH  17  18
ENDBRANCH  16  17
ENDBRANCH  15  16
ENDBRANCH  14  15
ENDBRANCH   1  14
TORSDOF 11
ENDMDL
MODEL 3
REMARK VINA RESULT:      -6.4      1.446      2.758
REMARK  11 active torsions:
REMARK  status: ('A' for Active; 'I' for Inactive)
REMARK    1  A    between atoms: C3_3  and  C2_2 
REMARK    2  A    between atoms: C4_4  and  C3_3 
REMARK    3  A    between atoms: C5_5  and  C4_4 
REMARK    4  A    between atoms: C6_6  and  C5_5 
REMARK    5  A    between atoms: C7_7  and  C6_6 
REMARK    6  A    between atoms: C8_8  and  C7_7 
REMARK    7  A    between atoms: C9_9  and  C8_8 
REMARK    8  A    between atoms: C10_10  and  C9_9 
REMARK    9  A    between atoms: C11_12  and  C10_10 
REMARK   10  A    between atoms: C11_12  and  C12_13 
REMARK       I    between atoms: C12_13  and  N1_15 
REMARK   11  A    between atoms: C13_16  and  N1_15 
ROOT
ATOM      1  C10 OHN d          40.359  17.609  -3.777  0.00  0.00     0.135 C 
ATOM      2  O1  OHN d          39.954  16.527  -4.166  0.00  0.00    -0.297 OA
ENDROOT
BRANCH   1   3
ATOM      3  C11 OHN d          39.998  18.141  -2.430  0.00  0.00     0.181 C 
BRANCH   3   4
ATOM      4  C12 OHN d          39.793  17.011  -1.455  0.00  0.00     0.225 C 
ATOM      5  N1  OHN d          40.365  15.838  -1.694  0.00  0.00    -0.347 N 
ATOM      6  H19 OHN d          40.916  15.673  -2.523  0.00  0.00     0.163 HD
ATOM      7  O2  OHN d          39.103  17.220  -0.486  0.00  0.00    -0.273 OA
BRANCH   5   8
ATOM      8  C13 OHN d          40.158  14.819  -0.706  0.00  0.00     0.186 C 
ATOM      9  C14 OHN d          38.945  13.924  -0.952  0.00  0.00     0.062 C 
ATOM     10  C15 OHN d          39.349  12.486  -0.585  0.00  0.00     0.181 C 
ATOM     11  O4  OHN d          40.764  12.477  -0.618  0.00  0.00    -0.320 OA
ATOM     12  C16 OHN d          41.247  13.816  -0.684  0.00  0.00     0.281 C 
ATOM     13  O3  OHN d          42.417  14.087  -0.703  0.00  0.00    -0.263 OA
ENDBRANCH   5   8
ENDBRANCH   3   4
ENDBRANCH   1   3
BRANCH   1  14
ATOM     14  C9  OHN d          41.190  18.471  -4.671  0.00  0.00     0.079 C 
BRANCH  14  15
ATOM     15  C8  OHN d          41.018  18.116  -6.128  0.00  0.00     0.007 C 
BRANCH  15  16
ATOM     16  C7  OHN d          41.893  19.111  -6.874  0.00  0.00     0.000 C 
BRANCH  16  17
ATOM     17  C6  OHN d          42.952  18.369  -7.696  0.00  0.00     0.000 C 
BRANCH  17  18
ATOM     18  C5  OHN d          42.251  17.336  -8.565  0.00  0.00     0.000 C 
BRANCH  18  19
ATOM     19  C4  OHN d          43.228  16.766  -9.569  0.00  0.00     0.000 C 
BRANCH  19  20
ATOM     20  C3  OHN d          42.663  15.496 -10.177  0.00  0.00    -0.000 C 
BRANCH  20  21
ATOM     21  C2  OHN d          43.216  15.314 -11.572  0.00  0.00    -0.005 C 
ATOM     22  C1  OHN d          44.055  16.523 -11.881  0.00  0.00     0.005 C 
ENDBRANCH  20  21
ENDBRANCH  19  20
ENDBRANCH  18  19
ENDBRANCH  17  18
ENDBRANCH  16  17
ENDBRANCH  15  16
ENDBRANCH  14  15
ENDBRANCH   1  14
TORSDOF 11
ENDMDL
MODEL 4
REMARK VINA RESULT:      -6.3      3.308      6.730
REMARK  11 active torsions:
REMARK  status: ('A' for Active; 'I' for Inactive)
REMARK    1  A    between atoms: C3_3  and  C2_2 
REMARK    2  A    between atoms: C4_4  and  C3_3 
REMARK    3  A    between atoms: C5_5  and  C4_4 
REMARK    4  A    between atoms: C6_6  and  C5_5 
REMARK    5  A    between atoms: C7_7  and  C6_6 
REMARK    6  A    between atoms: C8_8  and  C7_7 
REMARK    7  A    between atoms: C9_9  and  C8_8 
REMARK    8  A    between atoms: C10_10  and  C9_9 
REMARK    9  A    between atoms: C11_12  and  C10_10 
REMARK   10  A    between atoms: C11_12  and  C12_13 
REMARK       I    between atoms: C12_13  and  N1_15 
REMARK   11  A    between atoms: C13_16  and  N1_15 
ROOT
ATOM      1  C10 OHN d          38.301  14.125  -1.505  0.00  0.00     0.135 C 
ATOM      2  O1  OHN d          38.677  14.196  -2.662  0.00  0.00    -0.297 OA
ENDROOT
BRANCH   1   3
ATOM      3  C11 OHN d          37.512  15.222  -0.871  0.00  0.00     0.181 C 
BRANCH   3   4
ATOM      4  C12 OHN d          38.409  16.379  -0.518  0.00  0.00     0.225 C 
ATOM      5  N1  OHN d          37.951  17.618  -0.648  0.00  0.00    -0.347 N 
ATOM      6  H19 OHN d          37.025  17.809  -1.001  0.00  0.00     0.163 HD
ATOM      7  O2  OHN d          39.526  16.129  -0.130  0.00  0.00    -0.273 OA
BRANCH   5   8
ATOM      8  C13 OHN d          38.847  18.669  -0.261  0.00  0.00     0.186 C 
ATOM      9  C14 OHN d          39.513  19.406  -1.420  0.00  0.00     0.062 C 
ATOM     10  C15 OHN d          39.550  20.900  -1.058  0.00  0.00     0.181 C 
ATOM     11  O4  OHN d          38.567  21.064  -0.052  0.00  0.00    -0.320 OA
ATOM     12  C16 OHN d          38.154  19.785   0.421  0.00  0.00     0.281 C 
ATOM     13  O3  OHN d          37.339  19.645   1.293  0.00  0.00    -0.263 OA
ENDBRANCH   5   8
ENDBRANCH   3   4
ENDBRANCH   1   3
BRANCH   1  14
ATOM     14  C9  OHN d          38.675  12.951  -0.658  0.00  0.00     0.079 C 
BRANCH  14  15
ATOM     15  C8  OHN d          40.064  13.083  -0.082  0.00  0.00     0.007 C 
BRANCH  15  16
ATOM     16  C7  OHN d          40.898  12.069  -0.850  0.00  0.00     0.000 C 
BRANCH  16  17
ATOM     17  C6  OHN d          41.933  12.790  -1.720  0.00  0.00     0.000 C 
BRANCH  17  18
ATOM     18  C5  OHN d          41.874  14.277  -1.410  0.00  0.00     0.000 C 
BRANCH  18  19
ATOM     19  C4  OHN d          41.953  15.071  -2.695  0.00  0.00     0.000 C 
BRANCH  19  20
ATOM     20  C3  OHN d          41.158  16.355  -2.560  0.00  0.00    -0.000 C 
BRANCH  20  21
ATOM     21  C2  OHN d          40.379  16.603  -3.831  0.00  0.00    -0.005 C 
ATOM     22  C1  OHN d          40.840  17.922  -4.387  0.00  0.00     0.005 C 
ENDBRANCH  20  21
ENDBRANCH  19  20
ENDBRANCH  18  19
ENDBRANCH  17  18
ENDBRANCH  16  17
ENDBRANCH  15  16
ENDBRANCH  14  15
ENDBRANCH   1  14
TORSDOF 11
ENDMDL
MODEL 5
REMARK VINA RESULT:      -6.1      2.617      5.755
REMARK  11 active torsions:
REMARK  status: ('A' for Active; 'I' for Inactive)
REMARK    1  A    between atoms: C3_3  and  C2_2 
REMARK    2  A    between atoms: C4_4  and  C3_3 
REMARK    3  A    between atoms: C5_5  and  C4_4 
REMARK    4  A    between atoms: C6_6  and  C5_5 
REMARK    5  A    between atoms: C7_7  and  C6_6 
REMARK    6  A    between atoms: C8_8  and  C7_7 
REMARK    7  A    between atoms: C9_9  and  C8_8 
REMARK    8  A    between atoms: C10_10  and  C9_9 
REMARK    9  A    between atoms: C11_12  and  C10_10 
REMARK   10  A    between atoms: C11_12  and  C12_13 
REMARK       I    between atoms: C12_13  and  N1_15 
REMARK   11  A    between atoms: C13_16  and  N1_15 
ROOT
ATOM      1  C10 OHN d          38.674  14.126  -1.288  0.00  0.00     0.135 C 
ATOM      2  O1  OHN d          38.739  13.156  -0.553  0.00  0.00    -0.297 OA
ENDROOT
BRANCH   1   3
ATOM      3  C11 OHN d          37.773  15.277  -0.987  0.00  0.00     0.181 C 
BRANCH   3   4
ATOM      4  C12 OHN d          38.576  16.468  -0.530  0.00  0.00     0.225 C 
ATOM      5  N1  OHN d          38.056  17.683  -0.647  0.00  0.00    -0.347 N 
ATOM      6  H19 OHN d          37.146  17.837  -1.056  0.00  0.00     0.163 HD
ATOM      7  O2  OHN d          39.676  16.265  -0.075  0.00  0.00    -0.273 OA
BRANCH   5   8
ATOM      8  C13 OHN d          38.861  18.766  -0.160  0.00  0.00     0.186 C 
ATOM      9  C14 OHN d          39.537  19.602  -1.244  0.00  0.00     0.062 C 
ATOM     10  C15 OHN d          39.459  21.075  -0.807  0.00  0.00     0.181 C 
ATOM     11  O4  OHN d          38.417  21.125   0.150  0.00  0.00    -0.320 OA
ATOM     12  C16 OHN d          38.063  19.800   0.537  0.00  0.00     0.281 C 
ATOM     13  O3  OHN d          37.216  19.564   1.355  0.00  0.00    -0.263 OA
ENDBRANCH   5   8
ENDBRANCH   3   4
ENDBRANCH   1   3
BRANCH   1  14
ATOM     14  C9  OHN d          39.459  14.166  -2.560  0.00  0.00     0.079 C 
BRANCH  14  15
ATOM     15  C8  OHN d          40.948  14.211  -2.311  0.00  0.00     0.007 C 
BRANCH  15  16
ATOM     16  C7  OHN d          41.352  15.638  -2.648  0.00  0.00     0.000 C 
BRANCH  16  17
ATOM     17  C6  OHN d          40.478  16.178  -3.785  0.00  0.00     0.000 C 
BRANCH  17  18
ATOM     18  C5  OHN d          40.184  17.646  -3.513  0.00  0.00     0.000 C 
BRANCH  18  19
ATOM     19  C4  OHN d          41.043  18.513  -4.407  0.00  0.00     0.000 C 
BRANCH  19  20
ATOM     20  C3  OHN d          40.950  18.030  -5.841  0.00  0.00    -0.000 C 
BRANCH  20  21
ATOM     21  C2  OHN d          41.799  18.912  -6.727  0.00  0.00    -0.005 C 
ATOM     22  C1  OHN d          42.366  18.041  -7.814  0.00  0.00     0.005 C 
ENDBRANCH  20  21
ENDBRANCH  19  20
ENDBRANCH  18  19
ENDBRANCH  17  18
ENDBRANCH  16  17
ENDBRANCH  15  16
ENDBRANCH  14  15
ENDBRANCH   1  14
TORSDOF 11
ENDMDL
MODEL 6
REMARK VINA RESULT:      -5.7      5.509      9.985
REMARK  11 active torsions:
REMARK  status: ('A' for Active; 'I' for Inactive)
REMARK    1  A    between atoms: C3_3  and  C2_2 
REMARK    2  A    between atoms: C4_4  and  C3_3 
REMARK    3  A    between atoms: C5_5  and  C4_4 
REMARK    4  A    between atoms: C6_6  and  C5_5 
REMARK    5  A    between atoms: C7_7  and  C6_6 
REMARK    6  A    between atoms: C8_8  and  C7_7 
REMARK    7  A    between atoms: C9_9  and  C8_8 
REMARK    8  A    between atoms: C10_10  and  C9_9 
REMARK    9  A    between atoms: C11_12  and  C10_10 
REMARK   10  A    between atoms: C11_12  and  C12_13 
REMARK       I    between atoms: C12_13  and  N1_15 
REMARK   11  A    between atoms: C13_16  and  N1_15 
ROOT
ATOM      1  C10 OHN d          42.488  17.827  -8.071  0.00  0.00     0.135 C 
ATOM      2  O1  OHN d          43.696  17.970  -7.994  0.00  0.00    -0.297 OA
ENDROOT
BRANCH   1   3
ATOM      3  C11 OHN d          41.880  16.727  -8.876  0.00  0.00     0.181 C 
BRANCH   3   4
ATOM      4  C12 OHN d          42.911  16.109  -9.785  0.00  0.00     0.225 C 
ATOM      5  N1  OHN d          43.351  16.799 -10.830  0.00  0.00    -0.347 N 
ATOM      6  H19 OHN d          42.997  17.719 -11.048  0.00  0.00     0.163 HD
ATOM      7  O2  OHN d          43.297  14.994  -9.524  0.00  0.00    -0.273 OA
BRANCH   5   8
ATOM      8  C13 OHN d          44.357  16.164 -11.630  0.00  0.00     0.186 C 
ATOM      9  C14 OHN d          43.821  15.277 -12.751  0.00  0.00     0.062 C 
ATOM     10  C15 OHN d          44.714  15.499 -13.984  0.00  0.00     0.181 C 
ATOM     11  O4  OHN d          45.360  16.738 -13.757  0.00  0.00    -0.320 OA
ATOM     12  C16 OHN d          45.167  17.134 -12.402  0.00  0.00     0.281 C 
ATOM     13  O3  OHN d          45.632  18.143 -11.945  0.00  0.00    -0.263 OA
ENDBRANCH   5   8
ENDBRANCH   3   4
ENDBRANCH   1   3
BRANCH   1  14
ATOM     14  C9  OHN d          41.567  18.796  -7.402  0.00  0.00     0.079 C 
BRANCH  14  15
ATOM     15  C8  OHN d          41.722  18.787  -5.900  0.00  0.00     0.007 C 
BRANCH  15  16
ATOM     16  C7  OHN d          40.600  17.889  -5.402  0.00  0.00     0.000 C 
BRANCH  16  17
ATOM     17  C6  OHN d          40.601  17.846  -3.870  0.00  0.00     0.000 C 
BRANCH  17  18
ATOM     18  C5  OHN d          40.541  16.392  -3.428  0.00  0.00     0.000 C 
BRANCH  18  19
ATOM     19  C4  OHN d          39.969  16.306  -2.030  0.00  0.00     0.000 C 
BRANCH  19  20
ATOM     20  C3  OHN d          40.838  15.409  -1.170  0.00  0.00    -0.000 C 
BRANCH  20  21
ATOM     21  C2  OHN d          41.753  14.594  -2.055  0.00  0.00    -0.005 C 
ATOM     22  C1  OHN d          41.478  13.144  -1.768  0.00  0.00     0.005 C 
ENDBRANCH  20  21
ENDBRANCH  19  20
ENDBRANCH  18  19
ENDBRANCH  17  18
ENDBRANCH  16  17
ENDBRANCH  15  16
ENDBRANCH  14  15
ENDBRANCH   1  14
TORSDOF 11
ENDMDL
MODEL 7
REMARK VINA RESULT:      -5.6      5.054      8.916
REMARK  11 active torsions:
REMARK  status: ('A' for Active; 'I' for Inactive)
REMARK    1  A    between atoms: C3_3  and  C2_2 
REMARK    2  A    between atoms: C4_4  and  C3_3 
REMARK    3  A    between atoms: C5_5  and  C4_4 
REMARK    4  A    between atoms: C6_6  and  C5_5 
REMARK    5  A    between atoms: C7_7  and  C6_6 
REMARK    6  A    between atoms: C8_8  and  C7_7 
REMARK    7  A    between atoms: C9_9  and  C8_8 
REMARK    8  A    between atoms: C10_10  and  C9_9 
REMARK    9  A    between atoms: C11_12  and  C10_10 
REMARK   10  A    between atoms: C11_12  and  C12_13 
REMARK       I    between atoms: C12_13  and  N1_15 
REMARK   11  A    between atoms: C13_16  and  N1_15 
ROOT
ATOM      1  C10 OHN d          42.388  17.906  -7.940  0.00  0.00     0.135 C 
ATOM      2  O1  OHN d          43.604  17.963  -7.882  0.00  0.00    -0.297 OA
ENDROOT
BRANCH   1   3
ATOM      3  C11 OHN d          41.692  16.849  -8.732  0.00  0.00     0.181 C 
BRANCH   3   4
ATOM      4  C12 OHN d          42.661  16.162  -9.658  0.00  0.00     0.225 C 
ATOM      5  N1  OHN d          42.698  14.836  -9.691  0.00  0.00    -0.347 N 
ATOM      6  H19 OHN d          42.110  14.272  -9.095  0.00  0.00     0.163 HD
ATOM      7  O2  OHN d          43.379  16.856 -10.338  0.00  0.00    -0.273 OA
BRANCH   5   8
ATOM      8  C13 OHN d          43.619  14.250 -10.621  0.00  0.00     0.186 C 
ATOM      9  C14 OHN d          44.382  13.038 -10.092  0.00  0.00     0.062 C 
ATOM     10  C15 OHN d          44.469  12.012 -11.234  0.00  0.00     0.181 C 
ATOM     11  O4  OHN d          43.440  12.372 -12.138  0.00  0.00    -0.320 OA
ATOM     12  C16 OHN d          42.942  13.663 -11.800  0.00  0.00     0.281 C 
ATOM     13  O3  OHN d          42.075  14.211 -12.425  0.00  0.00    -0.263 OA
ENDBRANCH   5   8
ENDBRANCH   3   4
ENDBRANCH   1   3
BRANCH   1  14
ATOM     14  C9  OHN d          41.549  18.941  -7.262  0.00  0.00     0.079 C 
BRANCH  14  15
ATOM     15  C8  OHN d          41.637  18.852  -5.758  0.00  0.00     0.007 C 
BRANCH  15  16
ATOM     16  C7  OHN d          40.569  17.843  -5.368  0.00  0.00     0.000 C 
BRANCH  16  17
ATOM     17  C6  OHN d          40.576  17.628  -3.850  0.00  0.00     0.000 C 
BRANCH  17  18
ATOM     18  C5  OHN d          40.225  16.176  -3.567  0.00  0.00     0.000 C 
BRANCH  18  19
ATOM     19  C4  OHN d          41.077  15.656  -2.430  0.00  0.00     0.000 C 
BRANCH  19  20
ATOM     20  C3  OHN d          40.592  14.283  -2.007  0.00  0.00    -0.000 C 
BRANCH  20  21
ATOM     21  C2  OHN d          41.727  13.524  -1.358  0.00  0.00    -0.005 C 
ATOM     22  C1  OHN d          41.680  12.115  -1.881  0.00  0.00     0.005 C 
ENDBRANCH  20  21
ENDBRANCH  19  20
ENDBRANCH  18  19
ENDBRANCH  17  18
ENDBRANCH  16  17
ENDBRANCH  15  16
ENDBRANCH  14  15
ENDBRANCH   1  14
TORSDOF 11
ENDMDL
MODEL 8
REMARK VINA RESULT:      -5.5      8.327      9.653
REMARK  11 active torsions:
REMARK  status: ('A' for Active; 'I' for Inactive)
REMARK    1  A    between atoms: C3_3  and  C2_2 
REMARK    2  A    between atoms: C4_4  and  C3_3 
REMARK    3  A    between atoms: C5_5  and  C4_4 
REMARK    4  A    between atoms: C6_6  and  C5_5 
REMARK    5  A    between atoms: C7_7  and  C6_6 
REMARK    6  A    between atoms: C8_8  and  C7_7 
REMARK    7  A    between atoms: C9_9  and  C8_8 
REMARK    8  A    between atoms: C10_10  and  C9_9 
REMARK    9  A    between atoms: C11_12  and  C10_10 
REMARK   10  A    between atoms: C11_12  and  C12_13 
REMARK       I    between atoms: C12_13  and  N1_15 
REMARK   11  A    between atoms: C13_16  and  N1_15 
ROOT
ATOM      1  C10 OHN d          48.184  14.114  -4.668  0.00  0.00     0.135 C 
ATOM      2  O1  OHN d          48.362  15.033  -3.887  0.00  0.00    -0.297 OA
ENDROOT
BRANCH   1   3
ATOM      3  C11 OHN d          47.562  12.828  -4.234  0.00  0.00     0.181 C 
BRANCH   3   4
ATOM      4  C12 OHN d          48.625  11.843  -3.822  0.00  0.00     0.225 C 
ATOM      5  N1  OHN d          49.455  12.159  -2.837  0.00  0.00    -0.347 N 
ATOM      6  H19 OHN d          49.412  13.053  -2.369  0.00  0.00     0.163 HD
ATOM      7  O2  OHN d          48.681  10.793  -4.417  0.00  0.00    -0.273 OA
BRANCH   5   8
ATOM      8  C13 OHN d          50.418  11.160  -2.474  0.00  0.00     0.186 C 
ATOM      9  C14 OHN d          51.715  11.195  -3.280  0.00  0.00     0.062 C 
ATOM     10  C15 OHN d          52.872  10.918  -2.305  0.00  0.00     0.181 C 
ATOM     11  O4  OHN d          52.352  11.203  -1.019  0.00  0.00    -0.320 OA
ATOM     12  C16 OHN d          50.936  11.341  -1.099  0.00  0.00     0.281 C 
ATOM     13  O3  OHN d          50.248  11.565  -0.140  0.00  0.00    -0.263 OA
ENDBRANCH   5   8
ENDBRANCH   3   4
ENDBRANCH   1   3
BRANCH   1  14
ATOM     14  C9  OHN d          48.644  14.226  -6.086  0.00  0.00     0.079 C 
BRANCH  14  15
ATOM     15  C8  OHN d          50.136  14.042  -6.219  0.00  0.00     0.007 C 
BRANCH  15  16
ATOM     16  C7  OHN d          50.296  12.822  -7.113  0.00  0.00     0.000 C 
BRANCH  16  17
ATOM     17  C6  OHN d          48.964  12.489  -7.793  0.00  0.00     0.000 C 
BRANCH  17  18
ATOM     18  C5  OHN d          48.919  10.993  -8.060  0.00  0.00     0.000 C 
BRANCH  18  19
ATOM     19  C4  OHN d          47.490  10.502  -7.979  0.00  0.00     0.000 C 
BRANCH  19  20
ATOM     20  C3  OHN d          46.562  11.661  -7.674  0.00  0.00    -0.000 C 
BRANCH  20  21
ATOM     21  C2  OHN d          45.133  11.248  -7.942  0.00  0.00    -0.005 C 
ATOM     22  C1  OHN d          44.552  12.246  -8.905  0.00  0.00     0.005 C 
ENDBRANCH  20  21
ENDBRANCH  19  20
ENDBRANCH  18  19
ENDBRANCH  17  18
ENDBRANCH  16  17
ENDBRANCH  15  16
ENDBRANCH  14  15
ENDBRANCH   1  14
TORSDOF 11
ENDMDL
MODEL 9
REMARK VINA RESULT:      -5.4     10.091     12.337
REMARK  11 active torsions:
REMARK  status: ('A' for Active; 'I' for Inactive)
REMARK    1  A    between atoms: C3_3  and  C2_2 
REMARK    2  A    between atoms: C4_4  and  C3_3 
REMARK    3  A    between atoms: C5_5  and  C4_4 
REMARK    4  A    between atoms: C6_6  and  C5_5 
REMARK    5  A    between atoms: C7_7  and  C6_6 
REMARK    6  A    between atoms: C8_8  and  C7_7 
REMARK    7  A    between atoms: C9_9  and  C8_8 
REMARK    8  A    between atoms: C10_10  and  C9_9 
REMARK    9  A    between atoms: C11_12  and  C10_10 
REMARK   10  A    between atoms: C11_12  and  C12_13 
REMARK       I    between atoms: C12_13  and  N1_15 
REMARK   11  A    between atoms: C13_16  and  N1_15 
ROOT
ATOM      1  C10 OHN d          48.311  14.117  -4.638  0.00  0.00     0.135 C 
ATOM      2  O1  OHN d          48.426  15.048  -3.860  0.00  0.00    -0.297 OA
ENDROOT
BRANCH   1   3
ATOM      3  C11 OHN d          48.695  14.246  -6.075  0.00  0.00     0.181 C 
BRANCH   3   4
ATOM      4  C12 OHN d          50.183  14.077  -6.239  0.00  0.00     0.225 C 
ATOM      5  N1  OHN d          50.996  14.554  -5.306  0.00  0.00    -0.347 N 
ATOM      6  H19 OHN d          50.648  15.049  -4.497  0.00  0.00     0.163 HD
ATOM      7  O2  OHN d          50.580  13.512  -7.230  0.00  0.00    -0.273 OA
BRANCH   5   8
ATOM      8  C13 OHN d          52.397  14.327  -5.509  0.00  0.00     0.186 C 
ATOM      9  C14 OHN d          53.277  15.565  -5.357  0.00  0.00     0.062 C 
ATOM     10  C15 OHN d          54.559  15.135  -4.624  0.00  0.00     0.181 C 
ATOM     11  O4  OHN d          54.228  13.918  -3.980  0.00  0.00    -0.320 OA
ATOM     12  C16 OHN d          52.985  13.437  -4.483  0.00  0.00     0.281 C 
ATOM     13  O3  OHN d          52.488  12.407  -4.115  0.00  0.00    -0.263 OA
ENDBRANCH   5   8
ENDBRANCH   3   4
ENDBRANCH   1   3
BRANCH   1  14
ATOM     14  C9  OHN d          47.721  12.821  -4.184  0.00  0.00     0.079 C 
BRANCH  14  15
ATOM     15  C8  OHN d          48.761  11.887  -3.614  0.00  0.00     0.007 C 
BRANCH  15  16
ATOM     16  C7  OHN d          48.960  10.829  -4.688  0.00  0.00     0.000 C 
BRANCH  16  17
ATOM     17  C6  OHN d          50.011   9.810  -4.235  0.00  0.00     0.000 C 
BRANCH  17  18
ATOM     18  C5  OHN d          50.335  10.068  -2.772  0.00  0.00     0.000 C 
BRANCH  18  19
ATOM     19  C4  OHN d          51.692   9.488  -2.439  0.00  0.00     0.000 C 
BRANCH  19  20
ATOM     20  C3  OHN d          52.194  10.065  -1.130  0.00  0.00    -0.000 C 
BRANCH  20  21
ATOM     21  C2  OHN d          51.383  11.290  -0.774  0.00  0.00    -0.005 C 
ATOM     22  C1  OHN d          51.161  11.262   0.713  0.00  0.00     0.005 C 
ENDBRANCH  20  21
ENDBRANCH  19  20
ENDBRANCH  18  19
ENDBRANCH  17  18
ENDBRANCH  16  17
ENDBRANCH  15  16
ENDBRANCH  14  15
ENDBRANCH   1  14
TORSDOF 11
ENDMDL
MODEL 10
REMARK VINA RESULT:      -5.4     10.391     11.512
REMARK  11 active torsions:
REMARK  status: ('A' for Active; 'I' for Inactive)
REMARK    1  A    between atoms: C3_3  and  C2_2 
REMARK    2  A    between atoms: C4_4  and  C3_3 
REMARK    3  A    between atoms: C5_5  and  C4_4 
REMARK    4  A    between atoms: C6_6  and  C5_5 
REMARK    5  A    between atoms: C7_7  and  C6_6 
REMARK    6  A    between atoms: C8_8  and  C7_7 
REMARK    7  A    between atoms: C9_9  and  C8_8 
REMARK    8  A    between atoms: C10_10  and  C9_9 
REMARK    9  A    between atoms: C11_12  and  C10_10 
REMARK   10  A    between atoms: C11_12  and  C12_13 
REMARK       I    between atoms: C12_13  and  N1_15 
REMARK   11  A    between atoms: C13_16  and  N1_15 
ROOT
ATOM      1  C10 OHN d          52.502  13.499  -4.971  0.00  0.00     0.135 C 
ATOM      2  O1  OHN d          53.483  14.087  -4.549  0.00  0.00    -0.297 OA
ENDROOT
BRANCH   1   3
ATOM      3  C11 OHN d          52.481  12.013  -5.110  0.00  0.00     0.181 C 
BRANCH   3   4
ATOM      4  C12 OHN d          52.826  11.358  -3.798  0.00  0.00     0.225 C 
ATOM      5  N1  OHN d          52.500  11.965  -2.664  0.00  0.00    -0.347 N 
ATOM      6  H19 OHN d          52.047  12.867  -2.654  0.00  0.00     0.163 HD
ATOM      7  O2  OHN d          53.398  10.294  -3.833  0.00  0.00    -0.273 OA
BRANCH   5   8
ATOM      8  C13 OHN d          52.828  11.267  -1.455  0.00  0.00     0.186 C 
ATOM      9  C14 OHN d          54.072  11.780  -0.734  0.00  0.00     0.062 C 
ATOM     10  C15 OHN d          53.775  11.757   0.775  0.00  0.00     0.181 C 
ATOM     11  O4  OHN d          52.363  11.725   0.876  0.00  0.00    -0.320 OA
ATOM     12  C16 OHN d          51.802  11.440  -0.402  0.00  0.00     0.281 C 
ATOM     13  O3  OHN d          50.619  11.337  -0.586  0.00  0.00    -0.263 OA
ENDBRANCH   5   8
ENDBRANCH   3   4
ENDBRANCH   1   3
BRANCH   1  14
ATOM     14  C9  OHN d          51.299  14.262  -5.425  0.00  0.00     0.079 C 
BRANCH  14  15
ATOM     15  C8  OHN d          50.657  13.644  -6.643  0.00  0.00     0.007 C 
BRANCH  15  16
ATOM     16  C7  OHN d          49.174  13.944  -6.490  0.00  0.00     0.000 C 
BRANCH  16  17
ATOM     17  C6  OHN d          48.911  14.634  -5.147  0.00  0.00     0.000 C 
BRANCH  17  18
ATOM     18  C5  OHN d          47.769  13.912  -4.449  0.00  0.00     0.000 C 
BRANCH  18  19
ATOM     19  C4  OHN d          47.928  12.417  -4.622  0.00  0.00     0.000 C 
BRANCH  19  20
ATOM     20  C3  OHN d          48.754  11.850  -3.483  0.00  0.00    -0.000 C 
BRANCH  20  21
ATOM     21  C2  OHN d          49.318  10.508  -3.888  0.00  0.00    -0.005 C 
ATOM     22  C1  OHN d          49.076  10.348  -5.363  0.00  0.00     0.005 C 
ENDBRANCH  20  21
ENDBRANCH  19  20
ENDBRANCH  18  19
ENDBRANCH  17  18
ENDBRANCH  16  17
ENDBRANCH  15  16
ENDBRANCH  14  15
ENDBRANCH   1  14
TORSDOF 11
ENDMDL
MODEL 11
REMARK VINA RESULT:      -5.4      9.579     10.609
REMARK  11 active torsions:
REMARK  status: ('A' for Active; 'I' for Inactive)
REMARK    1  A    between atoms: C3_3  and  C2_2 
REMARK    2  A    between atoms: C4_4  and  C3_3 
REMARK    3  A    between atoms: C5_5  and  C4_4 
REMARK    4  A    between atoms: C6_6  and  C5_5 
REMARK    5  A    between atoms: C7_7  and  C6_6 
REMARK    6  A    between atoms: C8_8  and  C7_7 
REMARK    7  A    between atoms: C9_9  and  C8_8 
REMARK    8  A    between atoms: C10_10  and  C9_9 
REMARK    9  A    between atoms: C11_12  and  C10_10 
REMARK   10  A    between atoms: C11_12  and  C12_13 
REMARK       I    between atoms: C12_13  and  N1_15 
REMARK   11  A    between atoms: C13_16  and  N1_15 
ROOT
ATOM      1  C10 OHN d          49.620  10.705  -4.220  0.00  0.00     0.135 C 
ATOM      2  O1  OHN d          49.228   9.750  -4.868  0.00  0.00    -0.297 OA
ENDROOT
BRANCH   1   3
ATOM      3  C11 OHN d          51.074  10.999  -4.061  0.00  0.00     0.181 C 
BRANCH   3   4
ATOM      4  C12 OHN d          51.529  10.665  -2.664  0.00  0.00     0.225 C 
ATOM      5  N1  OHN d          51.975  11.636  -1.878  0.00  0.00    -0.347 N 
ATOM      6  H19 OHN d          52.043  12.592  -2.197  0.00  0.00     0.163 HD
ATOM      7  O2  OHN d          51.471   9.510  -2.313  0.00  0.00    -0.273 OA
BRANCH   5   8
ATOM      8  C13 OHN d          52.357  11.252  -0.550  0.00  0.00     0.186 C 
ATOM      9  C14 OHN d          53.775  11.653  -0.148  0.00  0.00     0.062 C 
ATOM     10  C15 OHN d          53.725  12.122   1.316  0.00  0.00     0.181 C 
ATOM     11  O4  OHN d          52.366  12.440   1.559  0.00  0.00    -0.320 OA
ATOM     12  C16 OHN d          51.564  11.941   0.493  0.00  0.00     0.281 C 
ATOM     13  O3  OHN d          50.368  12.060   0.466  0.00  0.00    -0.263 OA
ENDBRANCH   5   8
ENDBRANCH   3   4
ENDBRANCH   1   3
BRANCH   1  14
ATOM     14  C9  OHN d          48.645  11.586  -3.506  0.00  0.00     0.079 C 
BRANCH  14  15
ATOM     15  C8  OHN d          47.710  12.291  -4.458  0.00  0.00     0.007 C 
BRANCH  15  16
ATOM     16  C7  OHN d          48.144  13.748  -4.417  0.00  0.00     0.000 C 
BRANCH  16  17
ATOM     17  C6  OHN d          48.532  14.222  -5.821  0.00  0.00     0.000 C 
BRANCH  17  18
ATOM     18  C5  OHN d          50.036  14.062  -5.986  0.00  0.00     0.000 C 
BRANCH  18  19
ATOM     19  C4  OHN d          50.326  13.058  -7.080  0.00  0.00     0.000 C 
BRANCH  19  20
ATOM     20  C3  OHN d          49.076  12.816  -7.904  0.00  0.00    -0.000 C 
BRANCH  20  21
ATOM     21  C2  OHN d          48.801  11.332  -7.981  0.00  0.00    -0.005 C 
ATOM     22  C1  OHN d          47.308  11.153  -7.964  0.00  0.00     0.005 C 
ENDBRANCH  20  21
ENDBRANCH  19  20
ENDBRANCH  18  19
ENDBRANCH  17  18
ENDBRANCH  16  17
ENDBRANCH  15  16
ENDBRANCH  14  15
ENDBRANCH   1  14
TORSDOF 11
ENDMDL
MODEL 12
REMARK VINA RESULT:      -5.4      9.470     10.759
REMARK  11 active torsions:
REMARK  status: ('A' for Active; 'I' for Inactive)
REMARK    1  A    between atoms: C3_3  and  C2_2 
REMARK    2  A    between atoms: C4_4  and  C3_3 
REMARK    3  A    between atoms: C5_5  and  C4_4 
REMARK    4  A    between atoms: C6_6  and  C5_5 
REMARK    5  A    between atoms: C7_7  and  C6_6 
REMARK    6  A    between atoms: C8_8  and  C7_7 
REMARK    7  A    between atoms: C9_9  and  C8_8 
REMARK    8  A    between atoms: C10_10  and  C9_9 
REMARK    9  A    between atoms: C11_12  and  C10_10 
REMARK   10  A    between atoms: C11_12  and  C12_13 
REMARK       I    between atoms: C12_13  and  N1_15 
REMARK   11  A    between atoms: C13_16  and  N1_15 
ROOT
ATOM      1  C10 OHN d          49.496  10.772  -4.241  0.00  0.00     0.135 C 
ATOM      2  O1  OHN d          48.667  11.366  -3.573  0.00  0.00    -0.297 OA
ENDROOT
BRANCH   1   3
ATOM      3  C11 OHN d          50.955  11.063  -4.117  0.00  0.00     0.181 C 
BRANCH   3   4
ATOM      4  C12 OHN d          51.446  10.710  -2.737  0.00  0.00     0.225 C 
ATOM      5  N1  OHN d          51.547  11.665  -1.821  0.00  0.00    -0.347 N 
ATOM      6  H19 OHN d          51.327  12.628  -2.029  0.00  0.00     0.163 HD
ATOM      7  O2  OHN d          51.736   9.558  -2.519  0.00  0.00    -0.273 OA
BRANCH   5   8
ATOM      8  C13 OHN d          51.987  11.252  -0.520  0.00  0.00     0.186 C 
ATOM      9  C14 OHN d          53.455  11.542  -0.216  0.00  0.00     0.062 C 
ATOM     10  C15 OHN d          53.540  12.013   1.246  0.00  0.00     0.181 C 
ATOM     11  O4  OHN d          52.229  12.434   1.578  0.00  0.00    -0.320 OA
ATOM     12  C16 OHN d          51.321  11.999   0.570  0.00  0.00     0.281 C 
ATOM     13  O3  OHN d          50.139  12.210   0.623  0.00  0.00    -0.263 OA
ENDBRANCH   5   8
ENDBRANCH   3   4
ENDBRANCH   1   3
BRANCH   1  14
ATOM     14  C9  OHN d          49.067   9.765  -5.259  0.00  0.00     0.079 C 
BRANCH  14  15
ATOM     15  C8  OHN d          49.381  10.207  -6.668  0.00  0.00     0.007 C 
BRANCH  15  16
ATOM     16  C7  OHN d          48.050  10.683  -7.228  0.00  0.00     0.000 C 
BRANCH  16  17
ATOM     17  C6  OHN d          48.085  12.198  -7.455  0.00  0.00     0.000 C 
BRANCH  17  18
ATOM     18  C5  OHN d          49.533  12.626  -7.634  0.00  0.00     0.000 C 
BRANCH  18  19
ATOM     19  C4  OHN d          49.873  13.711  -6.636  0.00  0.00     0.000 C 
BRANCH  19  20
ATOM     20  C3  OHN d          48.601  14.287  -6.046  0.00  0.00    -0.000 C 
BRANCH  20  21
ATOM     21  C2  OHN d          48.886  14.834  -4.666  0.00  0.00    -0.005 C 
ATOM     22  C1  OHN d          47.638  15.525  -4.192  0.00  0.00     0.005 C 
ENDBRANCH  20  21
ENDBRANCH  19  20
ENDBRANCH  18  19
ENDBRANCH  17  18
ENDBRANCH  16  17
ENDBRANCH  15  16
ENDBRANCH  14  15
ENDBRANCH   1  14
TORSDOF 11
ENDMDL
MODEL 13
REMARK VINA RESULT:      -5.3      9.928     10.928
REMARK  11 active torsions:
REMARK  status: ('A' for Active; 'I' for Inactive)
REMARK    1  A    between atoms: C3_3  and  C2_2 
REMARK    2  A    between atoms: C4_4  and  C3_3 
REMARK    3  A    between atoms: C5_5  and  C4_4 
REMARK    4  A    between atoms: C6_6  and  C5_5 
REMARK    5  A    between atoms: C7_7  and  C6_6 
REMARK    6  A    between atoms: C8_8  and  C7_7 
REMARK    7  A    between atoms: C9_9  and  C8_8 
REMARK    8  A    between atoms: C10_10  and  C9_9 
REMARK    9  A    between atoms: C11_12  and  C10_10 
REMARK   10  A    between atoms: C11_12  and  C12_13 
REMARK       I    between atoms: C12_13  and  N1_15 
REMARK   11  A    between atoms: C13_16  and  N1_15 
ROOT
ATOM      1  C10 OHN d          49.613  11.014  -3.722  0.00  0.00     0.135 C 
ATOM      2  O1  OHN d          49.193  11.659  -2.776  0.00  0.00    -0.297 OA
ENDROOT
BRANCH   1   3
ATOM      3  C11 OHN d          51.031  10.554  -3.786  0.00  0.00     0.181 C 
BRANCH   3   4
ATOM      4  C12 OHN d          51.587  10.367  -2.398  0.00  0.00     0.225 C 
ATOM      5  N1  OHN d          51.850  11.434  -1.656  0.00  0.00    -0.347 N 
ATOM      6  H19 OHN d          51.710  12.372  -2.003  0.00  0.00     0.163 HD
ATOM      7  O2  OHN d          51.778   9.237  -2.015  0.00  0.00    -0.273 OA
BRANCH   5   8
ATOM      8  C13 OHN d          52.342  11.181  -0.333  0.00  0.00     0.186 C 
ATOM      9  C14 OHN d          53.788  11.609  -0.093  0.00  0.00     0.062 C 
ATOM     10  C15 OHN d          53.862  12.222   1.315  0.00  0.00     0.181 C 
ATOM     11  O4  OHN d          52.528  12.572   1.639  0.00  0.00    -0.320 OA
ATOM     12  C16 OHN d          51.639  11.976   0.699  0.00  0.00     0.281 C 
ATOM     13  O3  OHN d          50.446  12.101   0.761  0.00  0.00    -0.263 OA
ENDBRANCH   5   8
ENDBRANCH   3   4
ENDBRANCH   1   3
BRANCH   1  14
ATOM     14  C9  OHN d          48.725  10.712  -4.886  0.00  0.00     0.079 C 
BRANCH  14  15
ATOM     15  C8  OHN d          47.622  11.731  -5.043  0.00  0.00     0.007 C 
BRANCH  15  16
ATOM     16  C7  OHN d          47.658  12.115  -6.514  0.00  0.00     0.000 C 
BRANCH  16  17
ATOM     17  C6  OHN d          48.653  13.259  -6.736  0.00  0.00     0.000 C 
BRANCH  17  18
ATOM     18  C5  OHN d          48.405  14.326  -5.680  0.00  0.00     0.000 C 
BRANCH  18  19
ATOM     19  C4  OHN d          49.719  14.740  -5.054  0.00  0.00     0.000 C 
BRANCH  19  20
ATOM     20  C3  OHN d          50.851  13.916  -5.635  0.00  0.00    -0.000 C 
BRANCH  20  21
ATOM     21  C2  OHN d          52.175  14.543  -5.262  0.00  0.00    -0.005 C 
ATOM     22  C1  OHN d          53.062  13.443  -4.748  0.00  0.00     0.005 C 
ENDBRANCH  20  21
ENDBRANCH  19  20
ENDBRANCH  18  19
ENDBRANCH  17  18
ENDBRANCH  16  17
ENDBRANCH  15  16
ENDBRANCH  14  15
ENDBRANCH   1  14
TORSDOF 11
ENDMDL
MODEL 14
REMARK VINA RESULT:      -5.3     10.534     11.672
REMARK  11 active torsions:
REMARK  status: ('A' for Active; 'I' for Inactive)
REMARK    1  A    between atoms: C3_3  and  C2_2 
REMARK    2  A    between atoms: C4_4  and  C3_3 
REMARK    3  A    between atoms: C5_5  and  C4_4 
REMARK    4  A    between atoms: C6_6  and  C5_5 
REMARK    5  A    between atoms: C7_7  and  C6_6 
REMARK    6  A    between atoms: C8_8  and  C7_7 
REMARK    7  A    between atoms: C9_9  and  C8_8 
REMARK    8  A    between atoms: C10_10  and  C9_9 
REMARK    9  A    between atoms: C11_12  and  C10_10 
REMARK   10  A    between atoms: C11_12  and  C12_13 
REMARK       I    between atoms: C12_13  and  N1_15 
REMARK   11  A    between atoms: C13_16  and  N1_15 
ROOT
ATOM      1  C10 OHN d          51.936  13.776  -5.233  0.00  0.00     0.135 C 
ATOM      2  O1  OHN d          52.877  14.507  -4.978  0.00  0.00    -0.297 OA
ENDROOT
BRANCH   1   3
ATOM      3  C11 OHN d          52.126  12.321  -5.507  0.00  0.00     0.181 C 
BRANCH   3   4
ATOM      4  C12 OHN d          52.754  11.641  -4.318  0.00  0.00     0.225 C 
ATOM      5  N1  OHN d          52.612  12.178  -3.113  0.00  0.00    -0.347 N 
ATOM      6  H19 OHN d          52.114  13.045  -2.972  0.00  0.00     0.163 HD
ATOM      7  O2  OHN d          53.374  10.622  -4.514  0.00  0.00    -0.273 OA
BRANCH   5   8
ATOM      8  C13 OHN d          53.205  11.458  -2.024  0.00  0.00     0.186 C 
ATOM      9  C14 OHN d          54.466  12.095  -1.445  0.00  0.00     0.062 C 
ATOM     10  C15 OHN d          54.405  11.934   0.084  0.00  0.00     0.181 C 
ATOM     11  O4  OHN d          53.040  11.698   0.379  0.00  0.00    -0.320 OA
ATOM     12  C16 OHN d          52.335  11.418  -0.827  0.00  0.00     0.281 C 
ATOM     13  O3  OHN d          51.162  11.161  -0.852  0.00  0.00    -0.263 OA
ENDBRANCH   5   8
ENDBRANCH   3   4
ENDBRANCH   1   3
BRANCH   1  14
ATOM     14  C9  OHN d          50.553  14.334  -5.340  0.00  0.00     0.079 C 
BRANCH  14  15
ATOM     15  C8  OHN d          49.799  13.769  -6.520  0.00  0.00     0.007 C 
BRANCH  15  16
ATOM     16  C7  OHN d          48.335  13.847  -6.115  0.00  0.00     0.000 C 
BRANCH  16  17
ATOM     17  C6  OHN d          48.195  13.644  -4.603  0.00  0.00     0.000 C 
BRANCH  17  18
ATOM     18  C5  OHN d          47.825  12.192  -4.343  0.00  0.00     0.000 C 
BRANCH  18  19
ATOM     19  C4  OHN d          48.787  11.590  -3.343  0.00  0.00     0.000 C 
BRANCH  19  20
ATOM     20  C3  OHN d          49.466  10.375  -3.944  0.00  0.00    -0.000 C 
BRANCH  20  21
ATOM     21  C2  OHN d          49.005  10.194  -5.372  0.00  0.00    -0.005 C 
ATOM     22  C1  OHN d          49.950   9.225  -6.027  0.00  0.00     0.005 C 
ENDBRANCH  20  21
ENDBRANCH  19  20
ENDBRANCH  18  19
ENDBRANCH  17  18
ENDBRANCH  16  17
ENDBRANCH  15  16
ENDBRANCH  14  15
ENDBRANCH   1  14
TORSDOF 11
ENDMDL
MODEL 15
REMARK VINA RESULT:      -5.3      8.675     10.490
REMARK  11 active torsions:
REMARK  status: ('A' for Active; 'I' for Inactive)
REMARK    1  A    between atoms: C3_3  and  C2_2 
REMARK    2  A    between atoms: C4_4  and  C3_3 
REMARK    3  A    between atoms: C5_5  and  C4_4 
REMARK    4  A    between atoms: C6_6  and  C5_5 
REMARK    5  A    between atoms: C7_7  and  C6_6 
REMARK    6  A    between atoms: C8_8  and  C7_7 
REMARK    7  A    between atoms: C9_9  and  C8_8 
REMARK    8  A    between atoms: C10_10  and  C9_9 
REMARK    9  A    between atoms: C11_12  and  C10_10 
REMARK   10  A    between atoms: C11_12  and  C12_13 
REMARK       I    between atoms: C12_13  and  N1_15 
REMARK   11  A    between atoms: C13_16  and  N1_15 
ROOT
ATOM      1  C10 OHN d          46.134  11.193  -8.181  0.00  0.00     0.135 C 
ATOM      2  O1  OHN d          46.600  10.154  -8.616  0.00  0.00    -0.297 OA
ENDROOT
BRANCH   1   3
ATOM      3  C11 OHN d          44.744  11.625  -8.510  0.00  0.00     0.181 C 
BRANCH   3   4
ATOM      4  C12 OHN d          44.113  10.668  -9.488  0.00  0.00     0.225 C 
ATOM      5  N1  OHN d          43.573   9.543  -9.037  0.00  0.00    -0.347 N 
ATOM      6  H19 OHN d          43.593   9.297  -8.058  0.00  0.00     0.163 HD
ATOM      7  O2  OHN d          44.129  10.966 -10.659  0.00  0.00    -0.273 OA
BRANCH   5   8
ATOM      8  C13 OHN d          42.959   8.697 -10.019  0.00  0.00     0.186 C 
ATOM      9  C14 OHN d          43.666   7.363 -10.248  0.00  0.00     0.062 C 
ATOM     10  C15 OHN d          42.579   6.287 -10.418  0.00  0.00     0.181 C 
ATOM     11  O4  OHN d          41.411   6.845  -9.844  0.00  0.00    -0.320 OA
ATOM     12  C16 OHN d          41.613   8.236  -9.611  0.00  0.00     0.281 C 
ATOM     13  O3  OHN d          40.765   8.949  -9.148  0.00  0.00    -0.263 OA
ENDBRANCH   5   8
ENDBRANCH   3   4
ENDBRANCH   1   3
BRANCH   1  14
ATOM     14  C9  OHN d          46.971  12.105  -7.343  0.00  0.00     0.079 C 
BRANCH  14  15
ATOM     15  C8  OHN d          48.396  12.185  -7.835  0.00  0.00     0.007 C 
BRANCH  15  16
ATOM     16  C7  OHN d          49.085  13.134  -6.867  0.00  0.00     0.000 C 
BRANCH  16  17
ATOM     17  C6  OHN d          48.096  13.603  -5.795  0.00  0.00     0.000 C 
BRANCH  17  18
ATOM     18  C5  OHN d          48.699  13.327  -4.426  0.00  0.00     0.000 C 
BRANCH  18  19
ATOM     19  C4  OHN d          48.168  12.016  -3.889  0.00  0.00     0.000 C 
BRANCH  19  20
ATOM     20  C3  OHN d          49.296  11.219  -3.263  0.00  0.00    -0.000 C 
BRANCH  20  21
ATOM     21  C2  OHN d          50.106  10.551  -4.350  0.00  0.00    -0.005 C 
ATOM     22  C1  OHN d          49.167   9.678  -5.135  0.00  0.00     0.005 C 
ENDBRANCH  20  21
ENDBRANCH  19  20
ENDBRANCH  18  19
ENDBRANCH  17  18
ENDBRANCH  16  17
ENDBRANCH  15  16
ENDBRANCH  14  15
ENDBRANCH   1  14
TORSDOF 11
ENDMDL
MODEL 16
REMARK VINA RESULT:      -5.3      9.312     11.115
REMARK  11 active torsions:
REMARK  status: ('A' for Active; 'I' for Inactive)
REMARK    1  A    between atoms: C3_3  and  C2_2 
REMARK    2  A    between atoms: C4_4  and  C3_3 
REMARK    3  A    between atoms: C5_5  and  C4_4 
REMARK    4  A    between atoms: C6_6  and  C5_5 
REMARK    5  A    between atoms: C7_7  and  C6_6 
REMARK    6  A    between atoms: C8_8  and  C7_7 
REMARK    7  A    between atoms: C9_9  and  C8_8 
REMARK    8  A    between atoms: C10_10  and  C9_9 
REMARK    9  A    between atoms: C11_12  and  C10_10 
REMARK   10  A    between atoms: C11_12  and  C12_13 
REMARK       I    between atoms: C12_13  and  N1_15 
REMARK   11  A    between atoms: C13_16  and  N1_15 
ROOT
ATOM      1  C10 OHN d          48.340  14.131  -4.625  0.00  0.00     0.135 C 
ATOM      2  O1  OHN d          48.330  15.021  -3.793  0.00  0.00    -0.297 OA
ENDROOT
BRANCH   1   3
ATOM      3  C11 OHN d          48.737  14.387  -6.041  0.00  0.00     0.181 C 
BRANCH   3   4
ATOM      4  C12 OHN d          50.220  14.187  -6.216  0.00  0.00     0.225 C 
ATOM      5  N1  OHN d          51.041  14.530  -5.231  0.00  0.00    -0.347 N 
ATOM      6  H19 OHN d          50.702  14.945  -4.375  0.00  0.00     0.163 HD
ATOM      7  O2  OHN d          50.607  13.721  -7.261  0.00  0.00    -0.273 OA
BRANCH   5   8
ATOM      8  C13 OHN d          52.436  14.279  -5.452  0.00  0.00     0.186 C 
ATOM      9  C14 OHN d          53.340  15.499  -5.294  0.00  0.00     0.062 C 
ATOM     10  C15 OHN d          54.621  15.036  -4.579  0.00  0.00     0.181 C 
ATOM     11  O4  OHN d          54.274  13.817  -3.946  0.00  0.00    -0.320 OA
ATOM     12  C16 OHN d          53.017  13.366  -4.442  0.00  0.00     0.281 C 
ATOM     13  O3  OHN d          52.503  12.341  -4.081  0.00  0.00    -0.263 OA
ENDBRANCH   5   8
ENDBRANCH   3   4
ENDBRANCH   1   3
BRANCH   1  14
ATOM     14  C9  OHN d          47.892  12.751  -4.262  0.00  0.00     0.079 C 
BRANCH  14  15
ATOM     15  C8  OHN d          48.983  11.956  -3.588  0.00  0.00     0.007 C 
BRANCH  15  16
ATOM     16  C7  OHN d          48.946  10.596  -4.268  0.00  0.00     0.000 C 
BRANCH  16  17
ATOM     17  C6  OHN d          49.597  10.682  -5.653  0.00  0.00     0.000 C 
BRANCH  17  18
ATOM     18  C5  OHN d          48.621  10.131  -6.681  0.00  0.00     0.000 C 
BRANCH  18  19
ATOM     19  C4  OHN d          48.900  10.749  -8.033  0.00  0.00     0.000 C 
BRANCH  19  20
ATOM     20  C3  OHN d          47.815  11.751  -8.378  0.00  0.00    -0.000 C 
BRANCH  20  21
ATOM     21  C2  OHN d          46.594  11.485  -7.528  0.00  0.00    -0.005 C 
ATOM     22  C1  OHN d          45.388  11.819  -8.362  0.00  0.00     0.005 C 
ENDBRANCH  20  21
ENDBRANCH  19  20
ENDBRANCH  18  19
ENDBRANCH  17  18
ENDBRANCH  16  17
ENDBRANCH  15  16
ENDBRANCH  14  15
ENDBRANCH   1  14
TORSDOF 11
ENDMDL
MODEL 17
REMARK VINA RESULT:      -5.2      8.624     10.757
REMARK  11 active torsions:
REMARK  status: ('A' for Active; 'I' for Inactive)
REMARK    1  A    between atoms: C3_3  and  C2_2 
REMARK    2  A    between atoms: C4_4  and  C3_3 
REMARK    3  A    between atoms: C5_5  and  C4_4 
REMARK    4  A    between atoms: C6_6  and  C5_5 
REMARK    5  A    between atoms: C7_7  and  C6_6 
REMARK    6  A    between atoms: C8_8  and  C7_7 
REMARK    7  A    between atoms: C9_9  and  C8_8 
REMARK    8  A    between atoms: C10_10  and  C9_9 
REMARK    9  A    between atoms: C11_12  and  C10_10 
REMARK   10  A    between atoms: C11_12  and  C12_13 
REMARK       I    between atoms: C12_13  and  N1_15 
REMARK   11  A    between atoms: C13_16  and  N1_15 
ROOT
ATOM      1  C10 OHN d          49.609   8.977  -6.163  0.00  0.00     0.135 C 
ATOM      2  O1  OHN d          50.824   8.929  -6.240  0.00  0.00    -0.297 OA
ENDROOT
BRANCH   1   3
ATOM      3  C11 OHN d          48.739   8.047  -6.942  0.00  0.00     0.181 C 
BRANCH   3   4
ATOM      4  C12 OHN d          47.958   8.806  -7.984  0.00  0.00     0.225 C 
ATOM      5  N1  OHN d          46.632   8.789  -7.940  0.00  0.00    -0.347 N 
ATOM      6  H19 OHN d          46.129   8.262  -7.242  0.00  0.00     0.163 HD
ATOM      7  O2  OHN d          48.580   9.403  -8.830  0.00  0.00    -0.273 OA
BRANCH   5   8
ATOM      8  C13 OHN d          45.955   9.562  -8.941  0.00  0.00     0.186 C 
ATOM      9  C14 OHN d          44.712   8.900  -9.531  0.00  0.00     0.062 C 
ATOM     10  C15 OHN d          43.646   9.994  -9.708  0.00  0.00     0.181 C 
ATOM     11  O4  OHN d          44.046  11.046  -8.849  0.00  0.00    -0.320 OA
ATOM     12  C16 OHN d          45.378  10.813  -8.401  0.00  0.00     0.281 C 
ATOM     13  O3  OHN d          45.964  11.570  -7.674  0.00  0.00    -0.263 OA
ENDBRANCH   5   8
ENDBRANCH   3   4
ENDBRANCH   1   3
BRANCH   1  14
ATOM     14  C9  OHN d          48.944  10.020  -5.324  0.00  0.00     0.079 C 
BRANCH  14  15
ATOM     15  C8  OHN d          49.752  10.366  -4.097  0.00  0.00     0.007 C 
BRANCH  15  16
ATOM     16  C7  OHN d          48.987  11.504  -3.439  0.00  0.00     0.000 C 
BRANCH  16  17
ATOM     17  C6  OHN d          47.885  12.009  -4.376  0.00  0.00     0.000 C 
BRANCH  17  18
ATOM     18  C5  OHN d          47.962  13.526  -4.439  0.00  0.00     0.000 C 
BRANCH  18  19
ATOM     19  C4  OHN d          48.359  13.960  -5.833  0.00  0.00     0.000 C 
BRANCH  19  20
ATOM     20  C3  OHN d          49.866  14.115  -5.916  0.00  0.00    -0.000 C 
BRANCH  20  21
ATOM     21  C2  OHN d          50.397  13.275  -7.054  0.00  0.00    -0.005 C 
ATOM     22  C1  OHN d          49.211  12.763  -7.824  0.00  0.00     0.005 C 
ENDBRANCH  20  21
ENDBRANCH  19  20
ENDBRANCH  18  19
ENDBRANCH  17  18
ENDBRANCH  16  17
ENDBRANCH  15  16
ENDBRANCH  14  15
ENDBRANCH   1  14
TORSDOF 11
ENDMDL
MODEL 18
REMARK VINA RESULT:      -5.2      9.173     10.455
REMARK  11 active torsions:
REMARK  status: ('A' for Active; 'I' for Inactive)
REMARK    1  A    between atoms: C3_3  and  C2_2 
REMARK    2  A    between atoms: C4_4  and  C3_3 
REMARK    3  A    between atoms: C5_5  and  C4_4 
REMARK    4  A    between atoms: C6_6  and  C5_5 
REMARK    5  A    between atoms: C7_7  and  C6_6 
REMARK    6  A    between atoms: C8_8  and  C7_7 
REMARK    7  A    between atoms: C9_9  and  C8_8 
REMARK    8  A    between atoms: C10_10  and  C9_9 
REMARK    9  A    between atoms: C11_12  and  C10_10 
REMARK   10  A    between atoms: C11_12  and  C12_13 
REMARK       I    between atoms: C12_13  and  N1_15 
REMARK   11  A    between atoms: C13_16  and  N1_15 
ROOT
ATOM      1  C10 OHN d          48.213  14.019  -4.719  0.00  0.00     0.135 C 
ATOM      2  O1  OHN d          48.510  14.946  -3.987  0.00  0.00    -0.297 OA
ENDROOT
BRANCH   1   3
ATOM      3  C11 OHN d          47.570  12.779  -4.191  0.00  0.00     0.181 C 
BRANCH   3   4
ATOM      4  C12 OHN d          48.618  11.784  -3.765  0.00  0.00     0.225 C 
ATOM      5  N1  OHN d          49.536  12.149  -2.879  0.00  0.00    -0.347 N 
ATOM      6  H19 OHN d          49.567  13.084  -2.498  0.00  0.00     0.163 HD
ATOM      7  O2  OHN d          48.582  10.682  -4.258  0.00  0.00    -0.273 OA
BRANCH   5   8
ATOM      8  C13 OHN d          50.480  11.141  -2.492  0.00  0.00     0.186 C 
ATOM      9  C14 OHN d          51.784  11.145  -3.287  0.00  0.00     0.062 C 
ATOM     10  C15 OHN d          52.929  10.865  -2.297  0.00  0.00     0.181 C 
ATOM     11  O4  OHN d          52.401  11.176  -1.020  0.00  0.00    -0.320 OA
ATOM     12  C16 OHN d          50.989  11.335  -1.116  0.00  0.00     0.281 C 
ATOM     13  O3  OHN d          50.295  11.583  -0.166  0.00  0.00    -0.263 OA
ENDBRANCH   5   8
ENDBRANCH   3   4
ENDBRANCH   1   3
BRANCH   1  14
ATOM     14  C9  OHN d          48.541  14.071  -6.177  0.00  0.00     0.079 C 
BRANCH  14  15
ATOM     15  C8  OHN d          50.026  13.978  -6.431  0.00  0.00     0.007 C 
BRANCH  15  16
ATOM     16  C7  OHN d          50.241  12.566  -6.952  0.00  0.00     0.000 C 
BRANCH  16  17
ATOM     17  C6  OHN d          48.994  12.085  -7.701  0.00  0.00     0.000 C 
BRANCH  17  18
ATOM     18  C5  OHN d          49.024  10.566  -7.763  0.00  0.00     0.000 C 
BRANCH  18  19
ATOM     19  C4  OHN d          50.401  10.065  -7.387  0.00  0.00     0.000 C 
BRANCH  19  20
ATOM     20  C3  OHN d          50.286   8.773  -6.602  0.00  0.00    -0.000 C 
BRANCH  20  21
ATOM     21  C2  OHN d          48.911   8.179  -6.807  0.00  0.00    -0.005 C 
ATOM     22  C1  OHN d          49.095   6.857  -7.500  0.00  0.00     0.005 C 
ENDBRANCH  20  21
ENDBRANCH  19  20
ENDBRANCH  18  19
ENDBRANCH  17  18
ENDBRANCH  16  17
ENDBRANCH  15  16
ENDBRANCH  14  15
ENDBRANCH   1  14
TORSDOF 11
ENDMDL
MODEL 19
REMARK VINA RESULT:      -5.1      9.764     11.063
REMARK  11 active torsions:
REMARK  status: ('A' for Active; 'I' for Inactive)
REMARK    1  A    between atoms: C3_3  and  C2_2 
REMARK    2  A    between atoms: C4_4  and  C3_3 
REMARK    3  A    between atoms: C5_5  and  C4_4 
REMARK    4  A    between atoms: C6_6  and  C5_5 
REMARK    5  A    between atoms: C7_7  and  C6_6 
REMARK    6  A    between atoms: C8_8  and  C7_7 
REMARK    7  A    between atoms: C9_9  and  C8_8 
REMARK    8  A    between atoms: C10_10  and  C9_9 
REMARK    9  A    between atoms: C11_12  and  C10_10 
REMARK   10  A    between atoms: C11_12  and  C12_13 
REMARK       I    between atoms: C12_13  and  N1_15 
REMARK   11  A    between atoms: C13_16  and  N1_15 
ROOT
ATOM      1  C10 OHN d          48.873  11.494  -3.642  0.00  0.00     0.135 C 
ATOM      2  O1  OHN d          49.187  11.692  -2.481  0.00  0.00    -0.297 OA
ENDROOT
BRANCH   1   3
ATOM      3  C11 OHN d          49.589  10.492  -4.485  0.00  0.00     0.181 C 
BRANCH   3   4
ATOM      4  C12 OHN d          51.042  10.863  -4.623  0.00  0.00     0.225 C 
ATOM      5  N1  OHN d          51.481  11.984  -4.064  0.00  0.00    -0.347 N 
ATOM      6  H19 OHN d          50.863  12.609  -3.568  0.00  0.00     0.163 HD
ATOM      7  O2  OHN d          51.758  10.118  -5.250  0.00  0.00    -0.273 OA
BRANCH   5   8
ATOM      8  C13 OHN d          52.882  12.256  -4.205  0.00  0.00     0.186 C 
ATOM      9  C14 OHN d          53.217  13.658  -4.708  0.00  0.00     0.062 C 
ATOM     10  C15 OHN d          54.445  14.150  -3.923  0.00  0.00     0.181 C 
ATOM     11  O4  OHN d          54.491  13.344  -2.760  0.00  0.00    -0.320 OA
ATOM     12  C16 OHN d          53.598  12.244  -2.909  0.00  0.00     0.281 C 
ATOM     13  O3  OHN d          53.463  11.395  -2.069  0.00  0.00    -0.263 OA
ENDBRANCH   5   8
ENDBRANCH   3   4
ENDBRANCH   1   3
BRANCH   1  14
ATOM     14  C9  OHN d          47.789  12.301  -4.281  0.00  0.00     0.079 C 
BRANCH  14  15
ATOM     15  C8  OHN d          48.114  13.775  -4.305  0.00  0.00     0.007 C 
BRANCH  15  16
ATOM     16  C7  OHN d          48.254  14.114  -5.781  0.00  0.00     0.000 C 
BRANCH  16  17
ATOM     17  C6  OHN d          49.733  14.298  -6.141  0.00  0.00     0.000 C 
BRANCH  17  18
ATOM     18  C5  OHN d          50.109  13.255  -7.182  0.00  0.00     0.000 C 
BRANCH  18  19
ATOM     19  C4  OHN d          48.864  12.762  -7.885  0.00  0.00     0.000 C 
BRANCH  19  20
ATOM     20  C3  OHN d          48.978  11.275  -8.157  0.00  0.00    -0.000 C 
BRANCH  20  21
ATOM     21  C2  OHN d          47.733  10.573  -7.666  0.00  0.00    -0.005 C 
ATOM     22  C1  OHN d          46.592  11.544  -7.800  0.00  0.00     0.005 C 
ENDBRANCH  20  21
ENDBRANCH  19  20
ENDBRANCH  18  19
ENDBRANCH  17  18
ENDBRANCH  16  17
ENDBRANCH  15  16
ENDBRANCH  14  15
ENDBRANCH   1  14
TORSDOF 11
ENDMDL
