MODEL 1
REMARK VINA RESULT:      -4.9      0.000      0.000
REMARK  11 active torsions:
REMARK  status: ('A' for Active; 'I' for Inactive)
REMARK    1  A    between atoms: C3_3  and  C2_2 
REMARK    2  A    between atoms: C4_4  and  C3_3 
REMARK    3  A    between atoms: C5_5  and  C4_4 
REMARK    4  A    between atoms: C6_6  and  C5_5 
REMARK    5  A    between atoms: C7_7  and  C6_6 
REMARK    6  A    between atoms: C8_8  and  C7_7 
REMARK    7  A    between atoms: C9_9  and  C8_8 
REMARK    8  A    between atoms: C10_10  and  C9_9 
REMARK    9  A    between atoms: C11_12  and  C10_10 
REMARK   10  A    between atoms: C11_12  and  C12_13 
REMARK       I    between atoms: C12_13  and  N1_15 
REMARK   11  A    between atoms: C13_16  and  N1_15 
ROOT
ATOM      1  C10 OHN d          37.921  21.691  10.871  0.00  0.00     0.135 C 
ATOM      2  O1  OHN d          38.726  21.379  10.011  0.00  0.00    -0.297 OA
ENDROOT
BRANCH   1   3
ATOM      3  C11 OHN d          37.754  20.884  12.116  0.00  0.00     0.181 C 
BRANCH   3   4
ATOM      4  C12 OHN d          39.090  20.388  12.604  0.00  0.00     0.225 C 
ATOM      5  N1  OHN d          39.621  19.305  12.053  0.00  0.00    -0.347 N 
ATOM      6  H19 OHN d          39.144  18.787  11.330  0.00  0.00     0.163 HD
ATOM      7  O2  OHN d          39.629  21.004  13.494  0.00  0.00    -0.273 OA
BRANCH   5   8
ATOM      8  C13 OHN d          40.911  18.911  12.543  0.00  0.00     0.186 C 
ATOM      9  C14 OHN d          40.991  17.477  13.059  0.00  0.00     0.062 C 
ATOM     10  C15 OHN d          42.340  16.896  12.602  0.00  0.00     0.181 C 
ATOM     11  O4  OHN d          42.753  17.716  11.524  0.00  0.00    -0.320 OA
ATOM     12  C16 OHN d          41.940  18.885  11.479  0.00  0.00     0.281 C 
ATOM     13  O3  OHN d          42.096  19.757  10.667  0.00  0.00    -0.263 OA
ENDBRANCH   5   8
ENDBRANCH   3   4
ENDBRANCH   1   3
BRANCH   1  14
ATOM     14  C9  OHN d          37.025  22.872  10.676  0.00  0.00     0.079 C 
BRANCH  14  15
ATOM     15  C8  OHN d          36.169  23.145  11.889  0.00  0.00     0.007 C 
BRANCH  15  16
ATOM     16  C7  OHN d          34.999  23.960  11.360  0.00  0.00     0.000 C 
BRANCH  16  17
ATOM     17  C6  OHN d          35.324  24.504   9.965  0.00  0.00     0.000 C 
BRANCH  17  18
ATOM     18  C5  OHN d          34.929  25.972   9.915  0.00  0.00     0.000 C 
BRANCH  18  19
ATOM     19  C4  OHN d          35.593  26.719  11.050  0.00  0.00     0.000 C 
BRANCH  19  20
ATOM     20  C3  OHN d          37.078  26.862  10.776  0.00  0.00    -0.000 C 
BRANCH  20  21
ATOM     21  C2  OHN d          37.810  27.103  12.076  0.00  0.00    -0.005 C 
ATOM     22  C1  OHN d          38.636  25.878  12.358  0.00  0.00     0.005 C 
ENDBRANCH  20  21
ENDBRANCH  19  20
ENDBRANCH  18  19
ENDBRANCH  17  18
ENDBRANCH  16  17
ENDBRANCH  15  16
ENDBRANCH  14  15
ENDBRANCH   1  14
TORSDOF 11
ENDMDL
MODEL 2
REMARK VINA RESULT:      -4.9      2.963      4.215
REMARK  11 active torsions:
REMARK  status: ('A' for Active; 'I' for Inactive)
REMARK    1  A    between atoms: C3_3  and  C2_2 
REMARK    2  A    between atoms: C4_4  and  C3_3 
REMARK    3  A    between atoms: C5_5  and  C4_4 
REMARK    4  A    between atoms: C6_6  and  C5_5 
REMARK    5  A    between atoms: C7_7  and  C6_6 
REMARK    6  A    between atoms: C8_8  and  C7_7 
REMARK    7  A    between atoms: C9_9  and  C8_8 
REMARK    8  A    between atoms: C10_10  and  C9_9 
REMARK    9  A    between atoms: C11_12  and  C10_10 
REMARK   10  A    between atoms: C11_12  and  C12_13 
REMARK       I    between atoms: C12_13  and  N1_15 
REMARK   11  A    between atoms: C13_16  and  N1_15 
ROOT
ATOM      1  C10 OHN d          39.630  20.911  10.149  0.00  0.00     0.135 C 
ATOM      2  O1  OHN d          39.732  21.416   9.045  0.00  0.00    -0.297 OA
ENDROOT
BRANCH   1   3
ATOM      3  C11 OHN d          40.789  20.250  10.818  0.00  0.00     0.181 C 
BRANCH   3   4
ATOM      4  C12 OHN d          41.809  21.277  11.238  0.00  0.00     0.225 C 
ATOM      5  N1  OHN d          41.688  22.525  10.805  0.00  0.00    -0.347 N 
ATOM      6  H19 OHN d          40.944  22.803  10.182  0.00  0.00     0.163 HD
ATOM      7  O2  OHN d          42.710  20.915  11.957  0.00  0.00    -0.273 OA
BRANCH   5   8
ATOM      8  C13 OHN d          42.674  23.456  11.272  0.00  0.00     0.186 C 
ATOM      9  C14 OHN d          43.427  24.200  10.172  0.00  0.00     0.062 C 
ATOM     10  C15 OHN d          43.601  25.657  10.635  0.00  0.00     0.181 C 
ATOM     11  O4  OHN d          42.621  25.848  11.640  0.00  0.00    -0.320 OA
ATOM     12  C16 OHN d          42.080  24.587  12.021  0.00  0.00     0.281 C 
ATOM     13  O3  OHN d          41.241  24.468  12.873  0.00  0.00    -0.263 OA
ENDBRANCH   5   8
ENDBRANCH   3   4
ENDBRANCH   1   3
BRANCH   1  14
ATOM     14  C9  OHN d          38.309  20.885  10.849  0.00  0.00     0.079 C 
BRANCH  14  15
ATOM     15  C8  OHN d          37.925  22.239  11.395  0.00  0.00     0.007 C 
BRANCH  15  16
ATOM     16  C7  OHN d          36.866  22.757  10.433  0.00  0.00     0.000 C 
BRANCH  16  17
ATOM     17  C6  OHN d          36.095  23.916  11.073  0.00  0.00     0.000 C 
BRANCH  17  18
ATOM     18  C5  OHN d          35.339  24.654   9.979  0.00  0.00     0.000 C 
BRANCH  18  19
ATOM     19  C4  OHN d          35.567  26.143  10.116  0.00  0.00     0.000 C 
BRANCH  19  20
ATOM     20  C3  OHN d          36.311  26.436  11.405  0.00  0.00    -0.000 C 
BRANCH  20  21
ATOM     21  C2  OHN d          37.578  27.199  11.094  0.00  0.00    -0.005 C 
ATOM     22  C1  OHN d          38.615  26.771  12.096  0.00  0.00     0.005 C 
ENDBRANCH  20  21
ENDBRANCH  19  20
ENDBRANCH  18  19
ENDBRANCH  17  18
ENDBRANCH  16  17
ENDBRANCH  15  16
ENDBRANCH  14  15
ENDBRANCH   1  14
TORSDOF 11
ENDMDL
MODEL 3
REMARK VINA RESULT:      -4.8      0.984      1.110
REMARK  11 active torsions:
REMARK  status: ('A' for Active; 'I' for Inactive)
REMARK    1  A    between atoms: C3_3  and  C2_2 
REMARK    2  A    between atoms: C4_4  and  C3_3 
REMARK    3  A    between atoms: C5_5  and  C4_4 
REMARK    4  A    between atoms: C6_6  and  C5_5 
REMARK    5  A    between atoms: C7_7  and  C6_6 
REMARK    6  A    between atoms: C8_8  and  C7_7 
REMARK    7  A    between atoms: C9_9  and  C8_8 
REMARK    8  A    between atoms: C10_10  and  C9_9 
REMARK    9  A    between atoms: C11_12  and  C10_10 
REMARK   10  A    between atoms: C11_12  and  C12_13 
REMARK       I    between atoms: C12_13  and  N1_15 
REMARK   11  A    between atoms: C13_16  and  N1_15 
ROOT
ATOM      1  C10 OHN d          37.784  21.503  11.103  0.00  0.00     0.135 C 
ATOM      2  O1  OHN d          37.338  20.657  11.858  0.00  0.00    -0.297 OA
ENDROOT
BRANCH   1   3
ATOM      3  C11 OHN d          39.085  21.313  10.397  0.00  0.00     0.181 C 
BRANCH   3   4
ATOM      4  C12 OHN d          40.096  20.681  11.318  0.00  0.00     0.225 C 
ATOM      5  N1  OHN d          40.126  19.360  11.439  0.00  0.00    -0.347 N 
ATOM      6  H19 OHN d          39.474  18.765  10.949  0.00  0.00     0.163 HD
ATOM      7  O2  OHN d          40.845  21.413  11.921  0.00  0.00    -0.273 OA
BRANCH   5   8
ATOM      8  C13 OHN d          41.136  18.825  12.305  0.00  0.00     0.186 C 
ATOM      9  C14 OHN d          40.715  17.591  13.098  0.00  0.00     0.062 C 
ATOM     10  C15 OHN d          41.911  16.624  13.120  0.00  0.00     0.181 C 
ATOM     11  O4  OHN d          42.735  17.027  12.040  0.00  0.00    -0.320 OA
ATOM     12  C16 OHN d          42.303  18.298  11.562  0.00  0.00     0.281 C 
ATOM     13  O3  OHN d          42.848  18.874  10.660  0.00  0.00    -0.263 OA
ENDBRANCH   5   8
ENDBRANCH   3   4
ENDBRANCH   1   3
BRANCH   1  14
ATOM     14  C9  OHN d          37.063  22.798  10.906  0.00  0.00     0.079 C 
BRANCH  14  15
ATOM     15  C8  OHN d          36.131  23.112  12.051  0.00  0.00     0.007 C 
BRANCH  15  16
ATOM     16  C7  OHN d          34.940  23.800  11.402  0.00  0.00     0.000 C 
BRANCH  16  17
ATOM     17  C6  OHN d          35.331  24.338  10.021  0.00  0.00     0.000 C 
BRANCH  17  18
ATOM     18  C5  OHN d          34.839  25.772   9.905  0.00  0.00     0.000 C 
BRANCH  18  19
ATOM     19  C4  OHN d          35.493  26.625  10.970  0.00  0.00     0.000 C 
BRANCH  19  20
ATOM     20  C3  OHN d          36.966  26.803  10.658  0.00  0.00    -0.000 C 
BRANCH  20  21
ATOM     21  C2  OHN d          37.775  26.624  11.922  0.00  0.00    -0.005 C 
ATOM     22  C1  OHN d          38.759  27.760  11.986  0.00  0.00     0.005 C 
ENDBRANCH  20  21
ENDBRANCH  19  20
ENDBRANCH  18  19
ENDBRANCH  17  18
ENDBRANCH  16  17
ENDBRANCH  15  16
ENDBRANCH  14  15
ENDBRANCH   1  14
TORSDOF 11
ENDMDL
MODEL 4
REMARK VINA RESULT:      -4.8      3.106      4.447
REMARK  11 active torsions:
REMARK  status: ('A' for Active; 'I' for Inactive)
REMARK    1  A    between atoms: C3_3  and  C2_2 
REMARK    2  A    between atoms: C4_4  and  C3_3 
REMARK    3  A    between atoms: C5_5  and  C4_4 
REMARK    4  A    between atoms: C6_6  and  C5_5 
REMARK    5  A    between atoms: C7_7  and  C6_6 
REMARK    6  A    between atoms: C8_8  and  C7_7 
REMARK    7  A    between atoms: C9_9  and  C8_8 
REMARK    8  A    between atoms: C10_10  and  C9_9 
REMARK    9  A    between atoms: C11_12  and  C10_10 
REMARK   10  A    between atoms: C11_12  and  C12_13 
REMARK       I    between atoms: C12_13  and  N1_15 
REMARK   11  A    between atoms: C13_16  and  N1_15 
ROOT
ATOM      1  C10 OHN d          39.645  20.888  11.643  0.00  0.00     0.135 C 
ATOM      2  O1  OHN d          39.832  21.249  12.792  0.00  0.00    -0.297 OA
ENDROOT
BRANCH   1   3
ATOM      3  C11 OHN d          40.781  20.591  10.721  0.00  0.00     0.181 C 
BRANCH   3   4
ATOM      4  C12 OHN d          41.918  21.550  10.962  0.00  0.00     0.225 C 
ATOM      5  N1  OHN d          41.697  22.855  10.865  0.00  0.00    -0.347 N 
ATOM      6  H19 OHN d          40.793  23.225  10.610  0.00  0.00     0.163 HD
ATOM      7  O2  OHN d          43.000  21.085  11.233  0.00  0.00    -0.273 OA
BRANCH   5   8
ATOM      8  C13 OHN d          42.815  23.709  11.142  0.00  0.00     0.186 C 
ATOM      9  C14 OHN d          43.386  24.435   9.926  0.00  0.00     0.062 C 
ATOM     10  C15 OHN d          43.744  25.864  10.367  0.00  0.00     0.181 C 
ATOM     11  O4  OHN d          42.995  26.089  11.548  0.00  0.00    -0.320 OA
ATOM     12  C16 OHN d          42.456  24.854  12.010  0.00  0.00     0.281 C 
ATOM     13  O3  OHN d          41.794  24.765  13.009  0.00  0.00    -0.263 OA
ENDBRANCH   5   8
ENDBRANCH   3   4
ENDBRANCH   1   3
BRANCH   1  14
ATOM     14  C9  OHN d          38.257  20.788  11.098  0.00  0.00     0.079 C 
BRANCH  14  15
ATOM     15  C8  OHN d          37.954  21.881  10.102  0.00  0.00     0.007 C 
BRANCH  15  16
ATOM     16  C7  OHN d          37.041  22.841  10.848  0.00  0.00     0.000 C 
BRANCH  16  17
ATOM     17  C6  OHN d          35.982  23.409   9.897  0.00  0.00     0.000 C 
BRANCH  17  18
ATOM     18  C5  OHN d          35.397  24.666  10.522  0.00  0.00     0.000 C 
BRANCH  18  19
ATOM     19  C4  OHN d          36.446  25.353  11.368  0.00  0.00     0.000 C 
BRANCH  19  20
ATOM     20  C3  OHN d          36.720  26.742  10.825  0.00  0.00    -0.000 C 
BRANCH  20  21
ATOM     21  C2  OHN d          37.978  27.292  11.457  0.00  0.00    -0.005 C 
ATOM     22  C1  OHN d          38.608  26.175  12.244  0.00  0.00     0.005 C 
ENDBRANCH  20  21
ENDBRANCH  19  20
ENDBRANCH  18  19
ENDBRANCH  17  18
ENDBRANCH  16  17
ENDBRANCH  15  16
ENDBRANCH  14  15
ENDBRANCH   1  14
TORSDOF 11
ENDMDL
MODEL 5
REMARK VINA RESULT:      -4.7      3.118      4.892
REMARK  11 active torsions:
REMARK  status: ('A' for Active; 'I' for Inactive)
REMARK    1  A    between atoms: C3_3  and  C2_2 
REMARK    2  A    between atoms: C4_4  and  C3_3 
REMARK    3  A    between atoms: C5_5  and  C4_4 
REMARK    4  A    between atoms: C6_6  and  C5_5 
REMARK    5  A    between atoms: C7_7  and  C6_6 
REMARK    6  A    between atoms: C8_8  and  C7_7 
REMARK    7  A    between atoms: C9_9  and  C8_8 
REMARK    8  A    between atoms: C10_10  and  C9_9 
REMARK    9  A    between atoms: C11_12  and  C10_10 
REMARK   10  A    between atoms: C11_12  and  C12_13 
REMARK       I    between atoms: C12_13  and  N1_15 
REMARK   11  A    between atoms: C13_16  and  N1_15 
ROOT
ATOM      1  C10 OHN d          43.008  23.232  10.897  0.00  0.00     0.135 C 
ATOM      2  O1  OHN d          43.892  22.529  11.355  0.00  0.00    -0.297 OA
ENDROOT
BRANCH   1   3
ATOM      3  C11 OHN d          41.566  22.935  11.143  0.00  0.00     0.181 C 
BRANCH   3   4
ATOM      4  C12 OHN d          41.293  21.466  10.958  0.00  0.00     0.225 C 
ATOM      5  N1  OHN d          41.867  20.591  11.774  0.00  0.00    -0.347 N 
ATOM      6  H19 OHN d          42.503  20.881  12.503  0.00  0.00     0.163 HD
ATOM      7  O2  OHN d          40.556  21.138  10.058  0.00  0.00    -0.273 OA
BRANCH   5   8
ATOM      8  C13 OHN d          41.534  19.212  11.562  0.00  0.00     0.186 C 
ATOM      9  C14 OHN d          42.723  18.254  11.587  0.00  0.00     0.062 C 
ATOM     10  C15 OHN d          42.276  16.983  12.329  0.00  0.00     0.181 C 
ATOM     11  O4  OHN d          41.142  17.371  13.083  0.00  0.00    -0.320 OA
ATOM     12  C16 OHN d          40.700  18.654  12.650  0.00  0.00     0.281 C 
ATOM     13  O3  OHN d          39.740  19.205  13.117  0.00  0.00    -0.263 OA
ENDBRANCH   5   8
ENDBRANCH   3   4
ENDBRANCH   1   3
BRANCH   1  14
ATOM     14  C9  OHN d          43.344  24.392  10.016  0.00  0.00     0.079 C 
BRANCH  14  15
ATOM     15  C8  OHN d          44.104  25.468  10.753  0.00  0.00     0.007 C 
BRANCH  15  16
ATOM     16  C7  OHN d          43.073  26.553  11.023  0.00  0.00     0.000 C 
BRANCH  16  17
ATOM     17  C6  OHN d          43.190  27.044  12.470  0.00  0.00     0.000 C 
BRANCH  17  18
ATOM     18  C5  OHN d          41.793  27.344  12.992  0.00  0.00     0.000 C 
BRANCH  18  19
ATOM     19  C4  OHN d          41.058  26.050  13.258  0.00  0.00     0.000 C 
BRANCH  19  20
ATOM     20  C3  OHN d          39.718  26.060  12.548  0.00  0.00    -0.000 C 
BRANCH  20  21
ATOM     21  C2  OHN d          39.366  27.476  12.155  0.00  0.00    -0.005 C 
ATOM     22  C1  OHN d          38.007  27.437  11.512  0.00  0.00     0.005 C 
ENDBRANCH  20  21
ENDBRANCH  19  20
ENDBRANCH  18  19
ENDBRANCH  17  18
ENDBRANCH  16  17
ENDBRANCH  15  16
ENDBRANCH  14  15
ENDBRANCH   1  14
TORSDOF 11
ENDMDL
MODEL 6
REMARK VINA RESULT:      -4.7      1.720      2.676
REMARK  11 active torsions:
REMARK  status: ('A' for Active; 'I' for Inactive)
REMARK    1  A    between atoms: C3_3  and  C2_2 
REMARK    2  A    between atoms: C4_4  and  C3_3 
REMARK    3  A    between atoms: C5_5  and  C4_4 
REMARK    4  A    between atoms: C6_6  and  C5_5 
REMARK    5  A    between atoms: C7_7  and  C6_6 
REMARK    6  A    between atoms: C8_8  and  C7_7 
REMARK    7  A    between atoms: C9_9  and  C8_8 
REMARK    8  A    between atoms: C10_10  and  C9_9 
REMARK    9  A    between atoms: C11_12  and  C10_10 
REMARK   10  A    between atoms: C11_12  and  C12_13 
REMARK       I    between atoms: C12_13  and  N1_15 
REMARK   11  A    between atoms: C13_16  and  N1_15 
ROOT
ATOM      1  C10 OHN d          37.392  22.086  11.576  0.00  0.00     0.135 C 
ATOM      2  O1  OHN d          37.586  22.450  12.723  0.00  0.00    -0.297 OA
ENDROOT
BRANCH   1   3
ATOM      3  C11 OHN d          37.854  20.752  11.090  0.00  0.00     0.181 C 
BRANCH   3   4
ATOM      4  C12 OHN d          39.228  20.862  10.481  0.00  0.00     0.225 C 
ATOM      5  N1  OHN d          40.267  21.112  11.267  0.00  0.00    -0.347 N 
ATOM      6  H19 OHN d          40.161  21.255  12.261  0.00  0.00     0.163 HD
ATOM      7  O2  OHN d          39.327  20.721   9.286  0.00  0.00    -0.273 OA
BRANCH   5   8
ATOM      8  C13 OHN d          41.548  21.168  10.626  0.00  0.00     0.186 C 
ATOM      9  C14 OHN d          42.447  22.314  11.084  0.00  0.00     0.062 C 
ATOM     10  C15 OHN d          43.881  21.766  11.182  0.00  0.00     0.181 C 
ATOM     11  O4  OHN d          43.738  20.360  11.269  0.00  0.00    -0.320 OA
ATOM     12  C16 OHN d          42.398  19.999  10.947  0.00  0.00     0.281 C 
ATOM     13  O3  OHN d          42.017  18.859  10.927  0.00  0.00    -0.263 OA
ENDBRANCH   5   8
ENDBRANCH   3   4
ENDBRANCH   1   3
BRANCH   1  14
ATOM     14  C9  OHN d          36.730  22.998  10.594  0.00  0.00     0.079 C 
BRANCH  14  15
ATOM     15  C8  OHN d          35.995  24.129  11.272  0.00  0.00     0.007 C 
BRANCH  15  16
ATOM     16  C7  OHN d          35.473  24.988  10.130  0.00  0.00     0.000 C 
BRANCH  16  17
ATOM     17  C6  OHN d          35.919  26.442  10.318  0.00  0.00     0.000 C 
BRANCH  17  18
ATOM     18  C5  OHN d          36.805  26.520  11.552  0.00  0.00     0.000 C 
BRANCH  18  19
ATOM     19  C4  OHN d          37.996  27.409  11.272  0.00  0.00     0.000 C 
BRANCH  19  20
ATOM     20  C3  OHN d          39.102  27.123  12.269  0.00  0.00    -0.000 C 
BRANCH  20  21
ATOM     21  C2  OHN d          38.874  25.768  12.901  0.00  0.00    -0.005 C 
ATOM     22  C1  OHN d          40.057  24.908  12.551  0.00  0.00     0.005 C 
ENDBRANCH  20  21
ENDBRANCH  19  20
ENDBRANCH  18  19
ENDBRANCH  17  18
ENDBRANCH  16  17
ENDBRANCH  15  16
ENDBRANCH  14  15
ENDBRANCH   1  14
TORSDOF 11
ENDMDL
MODEL 7
REMARK VINA RESULT:      -4.7      2.143      2.698
REMARK  11 active torsions:
REMARK  status: ('A' for Active; 'I' for Inactive)
REMARK    1  A    between atoms: C3_3  and  C2_2 
REMARK    2  A    between atoms: C4_4  and  C3_3 
REMARK    3  A    between atoms: C5_5  and  C4_4 
REMARK    4  A    between atoms: C6_6  and  C5_5 
REMARK    5  A    between atoms: C7_7  and  C6_6 
REMARK    6  A    between atoms: C8_8  and  C7_7 
REMARK    7  A    between atoms: C9_9  and  C8_8 
REMARK    8  A    between atoms: C10_10  and  C9_9 
REMARK    9  A    between atoms: C11_12  and  C10_10 
REMARK   10  A    between atoms: C11_12  and  C12_13 
REMARK       I    between atoms: C12_13  and  N1_15 
REMARK   11  A    between atoms: C13_16  and  N1_15 
ROOT
ATOM      1  C10 OHN d          39.023  21.330  10.538  0.00  0.00     0.135 C 
ATOM      2  O1  OHN d          39.273  21.383   9.346  0.00  0.00    -0.297 OA
ENDROOT
BRANCH   1   3
ATOM      3  C11 OHN d          39.507  20.202  11.388  0.00  0.00     0.181 C 
BRANCH   3   4
ATOM      4  C12 OHN d          40.966  20.380  11.717  0.00  0.00     0.225 C 
ATOM      5  N1  OHN d          41.831  20.590  10.733  0.00  0.00    -0.347 N 
ATOM      6  H19 OHN d          41.544  20.610   9.766  0.00  0.00     0.163 HD
ATOM      7  O2  OHN d          41.294  20.318  12.878  0.00  0.00    -0.273 OA
BRANCH   5   8
ATOM      8  C13 OHN d          43.198  20.786  11.122  0.00  0.00     0.186 C 
ATOM      9  C14 OHN d          44.210  19.927  10.367  0.00  0.00     0.062 C 
ATOM     10  C15 OHN d          45.441  20.804  10.084  0.00  0.00     0.181 C 
ATOM     11  O4  OHN d          44.983  22.139  10.204  0.00  0.00    -0.320 OA
ATOM     12  C16 OHN d          43.691  22.145  10.805  0.00  0.00     0.281 C 
ATOM     13  O3  OHN d          43.086  23.156  11.039  0.00  0.00    -0.263 OA
ENDBRANCH   5   8
ENDBRANCH   3   4
ENDBRANCH   1   3
BRANCH   1  14
ATOM     14  C9  OHN d          38.166  22.373  11.179  0.00  0.00     0.079 C 
BRANCH  14  15
ATOM     15  C8  OHN d          36.904  22.637  10.392  0.00  0.00     0.007 C 
BRANCH  15  16
ATOM     16  C7  OHN d          36.238  23.799  11.112  0.00  0.00     0.000 C 
BRANCH  16  17
ATOM     17  C6  OHN d          35.428  24.639  10.119  0.00  0.00     0.000 C 
BRANCH  17  18
ATOM     18  C5  OHN d          35.773  26.105  10.332  0.00  0.00     0.000 C 
BRANCH  18  19
ATOM     19  C4  OHN d          36.814  26.232  11.423  0.00  0.00     0.000 C 
BRANCH  19  20
ATOM     20  C3  OHN d          37.731  27.403  11.129  0.00  0.00    -0.000 C 
BRANCH  20  21
ATOM     21  C2  OHN d          38.965  27.308  11.997  0.00  0.00    -0.005 C 
ATOM     22  C1  OHN d          39.016  25.911  12.550  0.00  0.00     0.005 C 
ENDBRANCH  20  21
ENDBRANCH  19  20
ENDBRANCH  18  19
ENDBRANCH  17  18
ENDBRANCH  16  17
ENDBRANCH  15  16
ENDBRANCH  14  15
ENDBRANCH   1  14
TORSDOF 11
ENDMDL
MODEL 8
REMARK VINA RESULT:      -4.7      4.455      8.776
REMARK  11 active torsions:
REMARK  status: ('A' for Active; 'I' for Inactive)
REMARK    1  A    between atoms: C3_3  and  C2_2 
REMARK    2  A    between atoms: C4_4  and  C3_3 
REMARK    3  A    between atoms: C5_5  and  C4_4 
REMARK    4  A    between atoms: C6_6  and  C5_5 
REMARK    5  A    between atoms: C7_7  and  C6_6 
REMARK    6  A    between atoms: C8_8  and  C7_7 
REMARK    7  A    between atoms: C9_9  and  C8_8 
REMARK    8  A    between atoms: C10_10  and  C9_9 
REMARK    9  A    between atoms: C11_12  and  C10_10 
REMARK   10  A    between atoms: C11_12  and  C12_13 
REMARK       I    between atoms: C12_13  and  N1_15 
REMARK   11  A    between atoms: C13_16  and  N1_15 
ROOT
ATOM      1  C10 OHN d          36.108  23.856  11.329  0.00  0.00     0.135 C 
ATOM      2  O1  OHN d          35.532  24.308  12.303  0.00  0.00    -0.297 OA
ENDROOT
BRANCH   1   3
ATOM      3  C11 OHN d          35.531  23.968   9.957  0.00  0.00     0.181 C 
BRANCH   3   4
ATOM      4  C12 OHN d          34.754  25.251   9.817  0.00  0.00     0.225 C 
ATOM      5  N1  OHN d          33.461  25.261  10.111  0.00  0.00    -0.347 N 
ATOM      6  H19 OHN d          32.974  24.427  10.404  0.00  0.00     0.163 HD
ATOM      7  O2  OHN d          35.349  26.230   9.432  0.00  0.00    -0.273 OA
BRANCH   5   8
ATOM      8  C13 OHN d          32.793  26.525   9.988  0.00  0.00     0.186 C 
ATOM      9  C14 OHN d          31.581  26.523   9.060  0.00  0.00     0.062 C 
ATOM     10  C15 OHN d          30.495  27.393   9.715  0.00  0.00     0.181 C 
ATOM     11  O4  OHN d          30.849  27.461  11.085  0.00  0.00    -0.320 OA
ATOM     12  C16 OHN d          32.174  26.967  11.258  0.00  0.00     0.281 C 
ATOM     13  O3  OHN d          32.722  26.934  12.327  0.00  0.00    -0.263 OA
ENDBRANCH   5   8
ENDBRANCH   3   4
ENDBRANCH   1   3
BRANCH   1  14
ATOM     14  C9  OHN d          37.397  23.115  11.488  0.00  0.00     0.079 C 
BRANCH  14  15
ATOM     15  C8  OHN d          37.197  21.743  12.084  0.00  0.00     0.007 C 
BRANCH  15  16
ATOM     16  C7  OHN d          38.037  20.819  11.217  0.00  0.00     0.000 C 
BRANCH  16  17
ATOM     17  C6  OHN d          38.289  21.465   9.850  0.00  0.00     0.000 C 
BRANCH  17  18
ATOM     18  C5  OHN d          39.738  21.218   9.459  0.00  0.00     0.000 C 
BRANCH  18  19
ATOM     19  C4  OHN d          40.461  20.521  10.590  0.00  0.00     0.000 C 
BRANCH  19  20
ATOM     20  C3  OHN d          41.750  21.253  10.909  0.00  0.00    -0.000 C 
BRANCH  20  21
ATOM     21  C2  OHN d          41.465  22.728  11.078  0.00  0.00    -0.005 C 
ATOM     22  C1  OHN d          42.709  23.472  10.678  0.00  0.00     0.005 C 
ENDBRANCH  20  21
ENDBRANCH  19  20
ENDBRANCH  18  19
ENDBRANCH  17  18
ENDBRANCH  16  17
ENDBRANCH  15  16
ENDBRANCH  14  15
ENDBRANCH   1  14
TORSDOF 11
ENDMDL
MODEL 9
REMARK VINA RESULT:      -4.6      1.178      2.194
REMARK  11 active torsions:
REMARK  status: ('A' for Active; 'I' for Inactive)
REMARK    1  A    between atoms: C3_3  and  C2_2 
REMARK    2  A    between atoms: C4_4  and  C3_3 
REMARK    3  A    between atoms: C5_5  and  C4_4 
REMARK    4  A    between atoms: C6_6  and  C5_5 
REMARK    5  A    between atoms: C7_7  and  C6_6 
REMARK    6  A    between atoms: C8_8  and  C7_7 
REMARK    7  A    between atoms: C9_9  and  C8_8 
REMARK    8  A    between atoms: C10_10  and  C9_9 
REMARK    9  A    between atoms: C11_12  and  C10_10 
REMARK   10  A    between atoms: C11_12  and  C12_13 
REMARK       I    between atoms: C12_13  and  N1_15 
REMARK   11  A    between atoms: C13_16  and  N1_15 
ROOT
ATOM      1  C10 OHN d          37.996  21.399  10.723  0.00  0.00     0.135 C 
ATOM      2  O1  OHN d          37.590  20.466  11.394  0.00  0.00    -0.297 OA
ENDROOT
BRANCH   1   3
ATOM      3  C11 OHN d          39.374  21.408  10.147  0.00  0.00     0.181 C 
BRANCH   3   4
ATOM      4  C12 OHN d          40.350  20.786  11.112  0.00  0.00     0.225 C 
ATOM      5  N1  OHN d          40.445  19.464  11.176  0.00  0.00    -0.347 N 
ATOM      6  H19 OHN d          39.864  18.860  10.613  0.00  0.00     0.163 HD
ATOM      7  O2  OHN d          41.012  21.526  11.800  0.00  0.00    -0.273 OA
BRANCH   5   8
ATOM      8  C13 OHN d          41.419  18.942  12.089  0.00  0.00     0.186 C 
ATOM      9  C14 OHN d          40.982  17.691  12.849  0.00  0.00     0.062 C 
ATOM     10  C15 OHN d          42.196  16.749  12.925  0.00  0.00     0.181 C 
ATOM     11  O4  OHN d          43.067  17.179  11.894  0.00  0.00    -0.320 OA
ATOM     12  C16 OHN d          42.634  18.445  11.404  0.00  0.00     0.281 C 
ATOM     13  O3  OHN d          43.214  19.041  10.537  0.00  0.00    -0.263 OA
ENDBRANCH   5   8
ENDBRANCH   3   4
ENDBRANCH   1   3
BRANCH   1  14
ATOM     14  C9  OHN d          37.139  22.604  10.504  0.00  0.00     0.079 C 
BRANCH  14  15
ATOM     15  C8  OHN d          36.757  23.276  11.801  0.00  0.00     0.007 C 
BRANCH  15  16
ATOM     16  C7  OHN d          38.007  24.029  12.228  0.00  0.00     0.000 C 
BRANCH  16  17
ATOM     17  C6  OHN d          37.625  25.376  12.851  0.00  0.00     0.000 C 
BRANCH  17  18
ATOM     18  C5  OHN d          38.101  26.487  11.927  0.00  0.00     0.000 C 
BRANCH  18  19
ATOM     19  C4  OHN d          36.992  26.867  10.972  0.00  0.00     0.000 C 
BRANCH  19  20
ATOM     20  C3  OHN d          35.662  26.880  11.701  0.00  0.00    -0.000 C 
BRANCH  20  21
ATOM     21  C2  OHN d          34.580  26.354  10.787  0.00  0.00    -0.005 C 
ATOM     22  C1  OHN d          35.251  25.870   9.531  0.00  0.00     0.005 C 
ENDBRANCH  20  21
ENDBRANCH  19  20
ENDBRANCH  18  19
ENDBRANCH  17  18
ENDBRANCH  16  17
ENDBRANCH  15  16
ENDBRANCH  14  15
ENDBRANCH   1  14
TORSDOF 11
ENDMDL
MODEL 10
REMARK VINA RESULT:      -4.6      2.966      4.863
REMARK  11 active torsions:
REMARK  status: ('A' for Active; 'I' for Inactive)
REMARK    1  A    between atoms: C3_3  and  C2_2 
REMARK    2  A    between atoms: C4_4  and  C3_3 
REMARK    3  A    between atoms: C5_5  and  C4_4 
REMARK    4  A    between atoms: C6_6  and  C5_5 
REMARK    5  A    between atoms: C7_7  and  C6_6 
REMARK    6  A    between atoms: C8_8  and  C7_7 
REMARK    7  A    between atoms: C9_9  and  C8_8 
REMARK    8  A    between atoms: C10_10  and  C9_9 
REMARK    9  A    between atoms: C11_12  and  C10_10 
REMARK   10  A    between atoms: C11_12  and  C12_13 
REMARK       I    between atoms: C12_13  and  N1_15 
REMARK   11  A    between atoms: C13_16  and  N1_15 
ROOT
ATOM      1  C10 OHN d          43.060  25.303  11.871  0.00  0.00     0.135 C 
ATOM      2  O1  OHN d          43.104  24.755  12.959  0.00  0.00    -0.297 OA
ENDROOT
BRANCH   1   3
ATOM      3  C11 OHN d          43.353  24.562  10.609  0.00  0.00     0.181 C 
BRANCH   3   4
ATOM      4  C12 OHN d          42.948  23.117  10.741  0.00  0.00     0.225 C 
ATOM      5  N1  OHN d          41.674  22.819  10.962  0.00  0.00    -0.347 N 
ATOM      6  H19 OHN d          40.970  23.534  11.069  0.00  0.00     0.163 HD
ATOM      7  O2  OHN d          43.812  22.278  10.644  0.00  0.00    -0.273 OA
BRANCH   5   8
ATOM      8  C13 OHN d          41.355  21.423  11.042  0.00  0.00     0.186 C 
ATOM      9  C14 OHN d          41.019  20.920  12.444  0.00  0.00     0.062 C 
ATOM     10  C15 OHN d          39.849  19.931  12.312  0.00  0.00     0.181 C 
ATOM     11  O4  OHN d          39.252  20.224  11.062  0.00  0.00    -0.320 OA
ATOM     12  C16 OHN d          40.111  21.081  10.315  0.00  0.00     0.281 C 
ATOM     13  O3  OHN d          39.847  21.464   9.207  0.00  0.00    -0.263 OA
ENDBRANCH   5   8
ENDBRANCH   3   4
ENDBRANCH   1   3
BRANCH   1  14
ATOM     14  C9  OHN d          42.765  26.765  11.773  0.00  0.00     0.079 C 
BRANCH  14  15
ATOM     15  C8  OHN d          41.840  27.236  12.869  0.00  0.00     0.007 C 
BRANCH  15  16
ATOM     16  C7  OHN d          40.455  26.800  12.420  0.00  0.00     0.000 C 
BRANCH  16  17
ATOM     17  C6  OHN d          39.572  28.026  12.167  0.00  0.00     0.000 C 
BRANCH  17  18
ATOM     18  C5  OHN d          38.218  27.551  11.662  0.00  0.00     0.000 C 
BRANCH  18  19
ATOM     19  C4  OHN d          38.008  26.104  12.049  0.00  0.00     0.000 C 
BRANCH  19  20
ATOM     20  C3  OHN d          36.711  25.592  11.451  0.00  0.00    -0.000 C 
BRANCH  20  21
ATOM     21  C2  OHN d          36.098  26.665  10.581  0.00  0.00    -0.005 C 
ATOM     22  C1  OHN d          35.207  25.977   9.584  0.00  0.00     0.005 C 
ENDBRANCH  20  21
ENDBRANCH  19  20
ENDBRANCH  18  19
ENDBRANCH  17  18
ENDBRANCH  16  17
ENDBRANCH  15  16
ENDBRANCH  14  15
ENDBRANCH   1  14
TORSDOF 11
ENDMDL
MODEL 11
REMARK VINA RESULT:      -4.6      3.023      5.355
REMARK  11 active torsions:
REMARK  status: ('A' for Active; 'I' for Inactive)
REMARK    1  A    between atoms: C3_3  and  C2_2 
REMARK    2  A    between atoms: C4_4  and  C3_3 
REMARK    3  A    between atoms: C5_5  and  C4_4 
REMARK    4  A    between atoms: C6_6  and  C5_5 
REMARK    5  A    between atoms: C7_7  and  C6_6 
REMARK    6  A    between atoms: C8_8  and  C7_7 
REMARK    7  A    between atoms: C9_9  and  C8_8 
REMARK    8  A    between atoms: C10_10  and  C9_9 
REMARK    9  A    between atoms: C11_12  and  C10_10 
REMARK   10  A    between atoms: C11_12  and  C12_13 
REMARK       I    between atoms: C12_13  and  N1_15 
REMARK   11  A    between atoms: C13_16  and  N1_15 
ROOT
ATOM      1  C10 OHN d          43.448  24.000  10.746  0.00  0.00     0.135 C 
ATOM      2  O1  OHN d          43.165  24.261   9.589  0.00  0.00    -0.297 OA
ENDROOT
BRANCH   1   3
ATOM      3  C11 OHN d          43.573  22.591  11.223  0.00  0.00     0.181 C 
BRANCH   3   4
ATOM      4  C12 OHN d          42.217  22.028  11.560  0.00  0.00     0.225 C 
ATOM      5  N1  OHN d          41.144  22.507  10.942  0.00  0.00    -0.347 N 
ATOM      6  H19 OHN d          41.207  23.257  10.269  0.00  0.00     0.163 HD
ATOM      7  O2  OHN d          42.160  21.155  12.393  0.00  0.00    -0.273 OA
BRANCH   5   8
ATOM      8  C13 OHN d          39.891  21.900  11.286  0.00  0.00     0.186 C 
ATOM      9  C14 OHN d          38.900  22.827  11.987  0.00  0.00     0.062 C 
ATOM     10  C15 OHN d          37.502  22.519  11.423  0.00  0.00     0.181 C 
ATOM     11  O4  OHN d          37.734  21.866  10.189  0.00  0.00    -0.320 OA
ATOM     12  C16 OHN d          39.107  21.499  10.096  0.00  0.00     0.281 C 
ATOM     13  O3  OHN d          39.563  20.911   9.152  0.00  0.00    -0.263 OA
ENDBRANCH   5   8
ENDBRANCH   3   4
ENDBRANCH   1   3
BRANCH   1  14
ATOM     14  C9  OHN d          43.621  25.097  11.747  0.00  0.00     0.079 C 
BRANCH  14  15
ATOM     15  C8  OHN d          43.243  26.447  11.187  0.00  0.00     0.007 C 
BRANCH  15  16
ATOM     16  C7  OHN d          42.387  27.087  12.269  0.00  0.00     0.000 C 
BRANCH  16  17
ATOM     17  C6  OHN d          41.564  26.017  12.992  0.00  0.00     0.000 C 
BRANCH  17  18
ATOM     18  C5  OHN d          40.099  26.206  12.628  0.00  0.00     0.000 C 
BRANCH  18  19
ATOM     19  C4  OHN d          39.837  27.661  12.306  0.00  0.00     0.000 C 
BRANCH  19  20
ATOM     20  C3  OHN d          38.401  27.839  11.850  0.00  0.00    -0.000 C 
BRANCH  20  21
ATOM     21  C2  OHN d          37.710  26.495  11.821  0.00  0.00    -0.005 C 
ATOM     22  C1  OHN d          36.621  26.574  10.787  0.00  0.00     0.005 C 
ENDBRANCH  20  21
ENDBRANCH  19  20
ENDBRANCH  18  19
ENDBRANCH  17  18
ENDBRANCH  16  17
ENDBRANCH  15  16
ENDBRANCH  14  15
ENDBRANCH   1  14
TORSDOF 11
ENDMDL
MODEL 12
REMARK VINA RESULT:      -4.6      2.957      5.436
REMARK  11 active torsions:
REMARK  status: ('A' for Active; 'I' for Inactive)
REMARK    1  A    between atoms: C3_3  and  C2_2 
REMARK    2  A    between atoms: C4_4  and  C3_3 
REMARK    3  A    between atoms: C5_5  and  C4_4 
REMARK    4  A    between atoms: C6_6  and  C5_5 
REMARK    5  A    between atoms: C7_7  and  C6_6 
REMARK    6  A    between atoms: C8_8  and  C7_7 
REMARK    7  A    between atoms: C9_9  and  C8_8 
REMARK    8  A    between atoms: C10_10  and  C9_9 
REMARK    9  A    between atoms: C11_12  and  C10_10 
REMARK   10  A    between atoms: C11_12  and  C12_13 
REMARK       I    between atoms: C12_13  and  N1_15 
REMARK   11  A    between atoms: C13_16  and  N1_15 
ROOT
ATOM      1  C10 OHN d          43.790  21.882  11.505  0.00  0.00     0.135 C 
ATOM      2  O1  OHN d          43.571  21.967  12.701  0.00  0.00    -0.297 OA
ENDROOT
BRANCH   1   3
ATOM      3  C11 OHN d          43.702  20.578  10.784  0.00  0.00     0.181 C 
BRANCH   3   4
ATOM      4  C12 OHN d          42.324  19.986  10.934  0.00  0.00     0.225 C 
ATOM      5  N1  OHN d          41.298  20.788  11.187  0.00  0.00    -0.347 N 
ATOM      6  H19 OHN d          41.417  21.784  11.306  0.00  0.00     0.163 HD
ATOM      7  O2  OHN d          42.210  18.789  10.821  0.00  0.00    -0.273 OA
BRANCH   5   8
ATOM      8  C13 OHN d          40.012  20.161  11.282  0.00  0.00     0.186 C 
ATOM      9  C14 OHN d          39.298  20.359  12.617  0.00  0.00     0.062 C 
ATOM     10  C15 OHN d          37.808  20.589  12.315  0.00  0.00     0.181 C 
ATOM     11  O4  OHN d          37.760  20.988  10.957  0.00  0.00    -0.320 OA
ATOM     12  C16 OHN d          39.024  20.744  10.346  0.00  0.00     0.281 C 
ATOM     13  O3  OHN d          39.244  20.976   9.188  0.00  0.00    -0.263 OA
ENDBRANCH   5   8
ENDBRANCH   3   4
ENDBRANCH   1   3
BRANCH   1  14
ATOM     14  C9  OHN d          44.216  23.085  10.727  0.00  0.00     0.079 C 
BRANCH  14  15
ATOM     15  C8  OHN d          43.087  24.069  10.532  0.00  0.00     0.007 C 
BRANCH  15  16
ATOM     16  C7  OHN d          43.765  25.347  10.065  0.00  0.00     0.000 C 
BRANCH  16  17
ATOM     17  C6  OHN d          43.279  26.537  10.899  0.00  0.00     0.000 C 
BRANCH  17  18
ATOM     18  C5  OHN d          42.416  26.010  12.035  0.00  0.00     0.000 C 
BRANCH  18  19
ATOM     19  C4  OHN d          41.582  27.135  12.608  0.00  0.00     0.000 C 
BRANCH  19  20
ATOM     20  C3  OHN d          40.118  26.740  12.618  0.00  0.00    -0.000 C 
BRANCH  20  21
ATOM     21  C2  OHN d          39.275  27.920  12.190  0.00  0.00    -0.005 C 
ATOM     22  C1  OHN d          38.084  27.373  11.453  0.00  0.00     0.005 C 
ENDBRANCH  20  21
ENDBRANCH  19  20
ENDBRANCH  18  19
ENDBRANCH  17  18
ENDBRANCH  16  17
ENDBRANCH  15  16
ENDBRANCH  14  15
ENDBRANCH   1  14
TORSDOF 11
ENDMDL
MODEL 13
REMARK VINA RESULT:      -4.6      1.366      2.869
REMARK  11 active torsions:
REMARK  status: ('A' for Active; 'I' for Inactive)
REMARK    1  A    between atoms: C3_3  and  C2_2 
REMARK    2  A    between atoms: C4_4  and  C3_3 
REMARK    3  A    between atoms: C5_5  and  C4_4 
REMARK    4  A    between atoms: C6_6  and  C5_5 
REMARK    5  A    between atoms: C7_7  and  C6_6 
REMARK    6  A    between atoms: C8_8  and  C7_7 
REMARK    7  A    between atoms: C9_9  and  C8_8 
REMARK    8  A    between atoms: C10_10  and  C9_9 
REMARK    9  A    between atoms: C11_12  and  C10_10 
REMARK   10  A    between atoms: C11_12  and  C12_13 
REMARK       I    between atoms: C12_13  and  N1_15 
REMARK   11  A    between atoms: C13_16  and  N1_15 
ROOT
ATOM      1  C10 OHN d          37.536  21.695  12.045  0.00  0.00     0.135 C 
ATOM      2  O1  OHN d          37.361  20.603  12.559  0.00  0.00    -0.297 OA
ENDROOT
BRANCH   1   3
ATOM      3  C11 OHN d          37.936  21.831  10.614  0.00  0.00     0.181 C 
BRANCH   3   4
ATOM      4  C12 OHN d          39.108  20.935  10.308  0.00  0.00     0.225 C 
ATOM      5  N1  OHN d          40.004  20.693  11.256  0.00  0.00    -0.347 N 
ATOM      6  H19 OHN d          39.936  21.111  12.173  0.00  0.00     0.163 HD
ATOM      7  O2  OHN d          39.189  20.472   9.195  0.00  0.00    -0.273 OA
BRANCH   5   8
ATOM      8  C13 OHN d          41.073  19.804  10.906  0.00  0.00     0.186 C 
ATOM      9  C14 OHN d          42.434  20.474  10.731  0.00  0.00     0.062 C 
ATOM     10  C15 OHN d          43.491  19.541  11.347  0.00  0.00     0.181 C 
ATOM     11  O4  OHN d          42.773  18.690  12.222  0.00  0.00    -0.320 OA
ATOM     12  C16 OHN d          41.376  18.827  11.977  0.00  0.00     0.281 C 
ATOM     13  O3  OHN d          40.545  18.198  12.574  0.00  0.00    -0.263 OA
ENDBRANCH   5   8
ENDBRANCH   3   4
ENDBRANCH   1   3
BRANCH   1  14
ATOM     14  C9  OHN d          37.414  22.942  12.860  0.00  0.00     0.079 C 
BRANCH  14  15
ATOM     15  C8  OHN d          38.369  24.019  12.402  0.00  0.00     0.007 C 
BRANCH  15  16
ATOM     16  C7  OHN d          37.687  25.324  12.780  0.00  0.00     0.000 C 
BRANCH  16  17
ATOM     17  C6  OHN d          38.383  26.502  12.089  0.00  0.00     0.000 C 
BRANCH  17  18
ATOM     18  C5  OHN d          37.433  27.087  11.056  0.00  0.00     0.000 C 
BRANCH  18  19
ATOM     19  C4  OHN d          36.046  26.517  11.257  0.00  0.00     0.000 C 
BRANCH  19  20
ATOM     20  C3  OHN d          35.482  26.049   9.930  0.00  0.00    -0.000 C 
BRANCH  20  21
ATOM     21  C2  OHN d          35.285  24.550   9.964  0.00  0.00    -0.005 C 
ATOM     22  C1  OHN d          34.467  24.235  11.186  0.00  0.00     0.005 C 
ENDBRANCH  20  21
ENDBRANCH  19  20
ENDBRANCH  18  19
ENDBRANCH  17  18
ENDBRANCH  16  17
ENDBRANCH  15  16
ENDBRANCH  14  15
ENDBRANCH   1  14
TORSDOF 11
ENDMDL
MODEL 14
REMARK VINA RESULT:      -4.6      4.167      6.221
REMARK  11 active torsions:
REMARK  status: ('A' for Active; 'I' for Inactive)
REMARK    1  A    between atoms: C3_3  and  C2_2 
REMARK    2  A    between atoms: C4_4  and  C3_3 
REMARK    3  A    between atoms: C5_5  and  C4_4 
REMARK    4  A    between atoms: C6_6  and  C5_5 
REMARK    5  A    between atoms: C7_7  and  C6_6 
REMARK    6  A    between atoms: C8_8  and  C7_7 
REMARK    7  A    between atoms: C9_9  and  C8_8 
REMARK    8  A    between atoms: C10_10  and  C9_9 
REMARK    9  A    between atoms: C11_12  and  C10_10 
REMARK   10  A    between atoms: C11_12  and  C12_13 
REMARK       I    between atoms: C12_13  and  N1_15 
REMARK   11  A    between atoms: C13_16  and  N1_15 
ROOT
ATOM      1  C10 OHN d          39.026  27.100  12.264  0.00  0.00     0.135 C 
ATOM      2  O1  OHN d          39.209  25.980  12.709  0.00  0.00    -0.297 OA
ENDROOT
BRANCH   1   3
ATOM      3  C11 OHN d          39.876  28.255  12.678  0.00  0.00     0.181 C 
BRANCH   3   4
ATOM      4  C12 OHN d          41.307  27.818  12.854  0.00  0.00     0.225 C 
ATOM      5  N1  OHN d          41.836  26.966  11.985  0.00  0.00    -0.347 N 
ATOM      6  H19 OHN d          41.300  26.582  11.221  0.00  0.00     0.163 HD
ATOM      7  O2  OHN d          41.922  28.264  13.794  0.00  0.00    -0.273 OA
BRANCH   5   8
ATOM      8  C13 OHN d          43.213  26.621  12.193  0.00  0.00     0.186 C 
ATOM      9  C14 OHN d          43.460  25.607  13.307  0.00  0.00     0.062 C 
ATOM     10  C15 OHN d          44.560  24.647  12.822  0.00  0.00     0.181 C 
ATOM     11  O4  OHN d          44.575  24.779  11.412  0.00  0.00    -0.320 OA
ATOM     12  C16 OHN d          43.805  25.916  11.034  0.00  0.00     0.281 C 
ATOM     13  O3  OHN d          43.673  26.263   9.891  0.00  0.00    -0.263 OA
ENDBRANCH   5   8
ENDBRANCH   3   4
ENDBRANCH   1   3
BRANCH   1  14
ATOM     14  C9  OHN d          37.893  27.365  11.326  0.00  0.00     0.079 C 
BRANCH  14  15
ATOM     15  C8  OHN d          36.694  26.495  11.617  0.00  0.00     0.007 C 
BRANCH  15  16
ATOM     16  C7  OHN d          36.004  26.327  10.273  0.00  0.00     0.000 C 
BRANCH  16  17
ATOM     17  C6  OHN d          35.393  24.925  10.167  0.00  0.00     0.000 C 
BRANCH  17  18
ATOM     18  C5  OHN d          36.138  24.000  11.116  0.00  0.00     0.000 C 
BRANCH  18  19
ATOM     19  C4  OHN d          36.710  22.830  10.346  0.00  0.00     0.000 C 
BRANCH  19  20
ATOM     20  C3  OHN d          38.002  22.368  10.992  0.00  0.00    -0.000 C 
BRANCH  20  21
ATOM     21  C2  OHN d          38.368  20.999  10.466  0.00  0.00    -0.005 C 
ATOM     22  C1  OHN d          39.544  21.174   9.545  0.00  0.00     0.005 C 
ENDBRANCH  20  21
ENDBRANCH  19  20
ENDBRANCH  18  19
ENDBRANCH  17  18
ENDBRANCH  16  17
ENDBRANCH  15  16
ENDBRANCH  14  15
ENDBRANCH   1  14
TORSDOF 11
ENDMDL
MODEL 15
REMARK VINA RESULT:      -4.6      3.314      5.112
REMARK  11 active torsions:
REMARK  status: ('A' for Active; 'I' for Inactive)
REMARK    1  A    between atoms: C3_3  and  C2_2 
REMARK    2  A    between atoms: C4_4  and  C3_3 
REMARK    3  A    between atoms: C5_5  and  C4_4 
REMARK    4  A    between atoms: C6_6  and  C5_5 
REMARK    5  A    between atoms: C7_7  and  C6_6 
REMARK    6  A    between atoms: C8_8  and  C7_7 
REMARK    7  A    between atoms: C9_9  and  C8_8 
REMARK    8  A    between atoms: C10_10  and  C9_9 
REMARK    9  A    between atoms: C11_12  and  C10_10 
REMARK   10  A    between atoms: C11_12  and  C12_13 
REMARK       I    between atoms: C12_13  and  N1_15 
REMARK   11  A    between atoms: C13_16  and  N1_15 
ROOT
ATOM      1  C10 OHN d          44.067  24.439  10.880  0.00  0.00     0.135 C 
ATOM      2  O1  OHN d          43.371  24.354   9.883  0.00  0.00    -0.297 OA
ENDROOT
BRANCH   1   3
ATOM      3  C11 OHN d          45.143  23.446  11.171  0.00  0.00     0.181 C 
BRANCH   3   4
ATOM      4  C12 OHN d          44.718  22.068  10.735  0.00  0.00     0.225 C 
ATOM      5  N1  OHN d          43.658  21.507  11.302  0.00  0.00    -0.347 N 
ATOM      6  H19 OHN d          43.140  21.967  12.037  0.00  0.00     0.163 HD
ATOM      7  O2  OHN d          45.371  21.522   9.878  0.00  0.00    -0.273 OA
BRANCH   5   8
ATOM      8  C13 OHN d          43.290  20.210  10.814  0.00  0.00     0.186 C 
ATOM      9  C14 OHN d          43.765  19.041  11.674  0.00  0.00     0.062 C 
ATOM     10  C15 OHN d          42.630  18.004  11.712  0.00  0.00     0.181 C 
ATOM     11  O4  OHN d          41.461  18.717  11.350  0.00  0.00    -0.320 OA
ATOM     12  C16 OHN d          41.826  19.991  10.826  0.00  0.00     0.281 C 
ATOM     13  O3  OHN d          41.019  20.786  10.425  0.00  0.00    -0.263 OA
ENDBRANCH   5   8
ENDBRANCH   3   4
ENDBRANCH   1   3
BRANCH   1  14
ATOM     14  C9  OHN d          43.821  25.520  11.884  0.00  0.00     0.079 C 
BRANCH  14  15
ATOM     15  C8  OHN d          43.018  26.662  11.309  0.00  0.00     0.007 C 
BRANCH  15  16
ATOM     16  C7  OHN d          41.948  26.944  12.351  0.00  0.00     0.000 C 
BRANCH  16  17
ATOM     17  C6  OHN d          41.121  25.680  12.613  0.00  0.00     0.000 C 
BRANCH  17  18
ATOM     18  C5  OHN d          39.652  26.069  12.679  0.00  0.00     0.000 C 
BRANCH  18  19
ATOM     19  C4  OHN d          39.484  27.508  12.244  0.00  0.00     0.000 C 
BRANCH  19  20
ATOM     20  C3  OHN d          38.142  27.689  11.563  0.00  0.00    -0.000 C 
BRANCH  20  21
ATOM     21  C2  OHN d          37.349  26.406  11.659  0.00  0.00    -0.005 C 
ATOM     22  C1  OHN d          36.335  26.423  10.549  0.00  0.00     0.005 C 
ENDBRANCH  20  21
ENDBRANCH  19  20
ENDBRANCH  18  19
ENDBRANCH  17  18
ENDBRANCH  16  17
ENDBRANCH  15  16
ENDBRANCH  14  15
ENDBRANCH   1  14
TORSDOF 11
ENDMDL
MODEL 16
REMARK VINA RESULT:      -4.6      3.528      5.217
REMARK  11 active torsions:
REMARK  status: ('A' for Active; 'I' for Inactive)
REMARK    1  A    between atoms: C3_3  and  C2_2 
REMARK    2  A    between atoms: C4_4  and  C3_3 
REMARK    3  A    between atoms: C5_5  and  C4_4 
REMARK    4  A    between atoms: C6_6  and  C5_5 
REMARK    5  A    between atoms: C7_7  and  C6_6 
REMARK    6  A    between atoms: C8_8  and  C7_7 
REMARK    7  A    between atoms: C9_9  and  C8_8 
REMARK    8  A    between atoms: C10_10  and  C9_9 
REMARK    9  A    between atoms: C11_12  and  C10_10 
REMARK   10  A    between atoms: C11_12  and  C12_13 
REMARK       I    between atoms: C12_13  and  N1_15 
REMARK   11  A    between atoms: C13_16  and  N1_15 
ROOT
ATOM      1  C10 OHN d          41.531  26.854  12.849  0.00  0.00     0.135 C 
ATOM      2  O1  OHN d          41.450  26.201  13.875  0.00  0.00    -0.297 OA
ENDROOT
BRANCH   1   3
ATOM      3  C11 OHN d          42.839  27.080  12.167  0.00  0.00     0.181 C 
BRANCH   3   4
ATOM      4  C12 OHN d          43.170  25.919  11.267  0.00  0.00     0.225 C 
ATOM      5  N1  OHN d          42.837  24.691  11.643  0.00  0.00    -0.347 N 
ATOM      6  H19 OHN d          42.389  24.508  12.529  0.00  0.00     0.163 HD
ATOM      7  O2  OHN d          43.738  26.156  10.226  0.00  0.00    -0.273 OA
BRANCH   5   8
ATOM      8  C13 OHN d          43.151  23.638  10.721  0.00  0.00     0.186 C 
ATOM      9  C14 OHN d          44.525  23.001  10.917  0.00  0.00     0.062 C 
ATOM     10  C15 OHN d          44.367  21.486  10.701  0.00  0.00     0.181 C 
ATOM     11  O4  OHN d          42.985  21.228  10.871  0.00  0.00    -0.320 OA
ATOM     12  C16 OHN d          42.269  22.460  10.881  0.00  0.00     0.281 C 
ATOM     13  O3  OHN d          41.074  22.518  10.992  0.00  0.00    -0.263 OA
ENDBRANCH   5   8
ENDBRANCH   3   4
ENDBRANCH   1   3
BRANCH   1  14
ATOM     14  C9  OHN d          40.317  27.506  12.270  0.00  0.00     0.079 C 
BRANCH  14  15
ATOM     15  C8  OHN d          39.108  26.603  12.315  0.00  0.00     0.007 C 
BRANCH  15  16
ATOM     16  C7  OHN d          38.040  27.351  11.532  0.00  0.00     0.000 C 
BRANCH  16  17
ATOM     17  C6  OHN d          36.697  26.619  11.642  0.00  0.00     0.000 C 
BRANCH  17  18
ATOM     18  C5  OHN d          36.060  26.570  10.262  0.00  0.00     0.000 C 
BRANCH  18  19
ATOM     19  C4  OHN d          35.392  25.228  10.055  0.00  0.00     0.000 C 
BRANCH  19  20
ATOM     20  C3  OHN d          35.896  24.236  11.085  0.00  0.00    -0.000 C 
BRANCH  20  21
ATOM     21  C2  OHN d          36.548  23.067  10.383  0.00  0.00    -0.005 C 
ATOM     22  C1  OHN d          37.529  22.458  11.347  0.00  0.00     0.005 C 
ENDBRANCH  20  21
ENDBRANCH  19  20
ENDBRANCH  18  19
ENDBRANCH  17  18
ENDBRANCH  16  17
ENDBRANCH  15  16
ENDBRANCH  14  15
ENDBRANCH   1  14
TORSDOF 11
ENDMDL
MODEL 17
REMARK VINA RESULT:      -4.6      3.579      6.668
REMARK  11 active torsions:
REMARK  status: ('A' for Active; 'I' for Inactive)
REMARK    1  A    between atoms: C3_3  and  C2_2 
REMARK    2  A    between atoms: C4_4  and  C3_3 
REMARK    3  A    between atoms: C5_5  and  C4_4 
REMARK    4  A    between atoms: C6_6  and  C5_5 
REMARK    5  A    between atoms: C7_7  and  C6_6 
REMARK    6  A    between atoms: C8_8  and  C7_7 
REMARK    7  A    between atoms: C9_9  and  C8_8 
REMARK    8  A    between atoms: C10_10  and  C9_9 
REMARK    9  A    between atoms: C11_12  and  C10_10 
REMARK   10  A    between atoms: C11_12  and  C12_13 
REMARK       I    between atoms: C12_13  and  N1_15 
REMARK   11  A    between atoms: C13_16  and  N1_15 
ROOT
ATOM      1  C10 OHN d          37.526  21.804  10.959  0.00  0.00     0.135 C 
ATOM      2  O1  OHN d          37.012  22.561  10.153  0.00  0.00    -0.297 OA
ENDROOT
BRANCH   1   3
ATOM      3  C11 OHN d          37.310  21.962  12.428  0.00  0.00     0.181 C 
BRANCH   3   4
ATOM      4  C12 OHN d          37.326  23.419  12.808  0.00  0.00     0.225 C 
ATOM      5  N1  OHN d          38.101  24.257  12.131  0.00  0.00    -0.347 N 
ATOM      6  H19 OHN d          38.700  23.942  11.382  0.00  0.00     0.163 HD
ATOM      7  O2  OHN d          36.628  23.769  13.729  0.00  0.00    -0.273 OA
BRANCH   5   8
ATOM      8  C13 OHN d          38.040  25.635  12.524  0.00  0.00     0.186 C 
ATOM      9  C14 OHN d          39.396  26.298  12.756  0.00  0.00     0.062 C 
ATOM     10  C15 OHN d          39.318  27.723  12.184  0.00  0.00     0.181 C 
ATOM     11  O4  OHN d          38.229  27.702  11.278  0.00  0.00    -0.320 OA
ATOM     12  C16 OHN d          37.479  26.505  11.465  0.00  0.00     0.281 C 
ATOM     13  O3  OHN d          36.490  26.250  10.833  0.00  0.00    -0.263 OA
ENDBRANCH   5   8
ENDBRANCH   3   4
ENDBRANCH   1   3
BRANCH   1  14
ATOM     14  C9  OHN d          38.446  20.720  10.499  0.00  0.00     0.079 C 
BRANCH  14  15
ATOM     15  C8  OHN d          39.541  21.243   9.601  0.00  0.00     0.007 C 
BRANCH  15  16
ATOM     16  C7  OHN d          40.823  21.022  10.387  0.00  0.00     0.000 C 
BRANCH  16  17
ATOM     17  C6  OHN d          41.121  22.243  11.263  0.00  0.00     0.000 C 
BRANCH  17  18
ATOM     18  C5  OHN d          42.192  23.079  10.579  0.00  0.00     0.000 C 
BRANCH  18  19
ATOM     19  C4  OHN d          42.754  24.089  11.555  0.00  0.00     0.000 C 
BRANCH  19  20
ATOM     20  C3  OHN d          43.972  24.765  10.956  0.00  0.00    -0.000 C 
BRANCH  20  21
ATOM     21  C2  OHN d          43.609  26.165  10.519  0.00  0.00    -0.005 C 
ATOM     22  C1  OHN d          42.943  26.839  11.686  0.00  0.00     0.005 C 
ENDBRANCH  20  21
ENDBRANCH  19  20
ENDBRANCH  18  19
ENDBRANCH  17  18
ENDBRANCH  16  17
ENDBRANCH  15  16
ENDBRANCH  14  15
ENDBRANCH   1  14
TORSDOF 11
ENDMDL
MODEL 18
REMARK VINA RESULT:      -4.6      2.668      4.208
REMARK  11 active torsions:
REMARK  status: ('A' for Active; 'I' for Inactive)
REMARK    1  A    between atoms: C3_3  and  C2_2 
REMARK    2  A    between atoms: C4_4  and  C3_3 
REMARK    3  A    between atoms: C5_5  and  C4_4 
REMARK    4  A    between atoms: C6_6  and  C5_5 
REMARK    5  A    between atoms: C7_7  and  C6_6 
REMARK    6  A    between atoms: C8_8  and  C7_7 
REMARK    7  A    between atoms: C9_9  and  C8_8 
REMARK    8  A    between atoms: C10_10  and  C9_9 
REMARK    9  A    between atoms: C11_12  and  C10_10 
REMARK   10  A    between atoms: C11_12  and  C12_13 
REMARK       I    between atoms: C12_13  and  N1_15 
REMARK   11  A    between atoms: C13_16  and  N1_15 
ROOT
ATOM      1  C10 OHN d          36.557  24.093  11.168  0.00  0.00     0.135 C 
ATOM      2  O1  OHN d          35.754  24.301  10.275  0.00  0.00    -0.297 OA
ENDROOT
BRANCH   1   3
ATOM      3  C11 OHN d          36.861  22.710  11.641  0.00  0.00     0.181 C 
BRANCH   3   4
ATOM      4  C12 OHN d          38.088  22.176  10.949  0.00  0.00     0.225 C 
ATOM      5  N1  OHN d          39.247  22.176  11.593  0.00  0.00    -0.347 N 
ATOM      6  H19 OHN d          39.337  22.545  12.529  0.00  0.00     0.163 HD
ATOM      7  O2  OHN d          37.965  21.769   9.818  0.00  0.00    -0.273 OA
BRANCH   5   8
ATOM      8  C13 OHN d          40.365  21.620  10.887  0.00  0.00     0.186 C 
ATOM      9  C14 OHN d          41.626  22.481  10.902  0.00  0.00     0.062 C 
ATOM     10  C15 OHN d          42.828  21.538  11.077  0.00  0.00     0.181 C 
ATOM     11  O4  OHN d          42.290  20.343  11.614  0.00  0.00    -0.320 OA
ATOM     12  C16 OHN d          40.869  20.374  11.508  0.00  0.00     0.281 C 
ATOM     13  O3  OHN d          40.169  19.469  11.874  0.00  0.00    -0.263 OA
ENDBRANCH   5   8
ENDBRANCH   3   4
ENDBRANCH   1   3
BRANCH   1  14
ATOM     14  C9  OHN d          37.225  25.234  11.866  0.00  0.00     0.079 C 
BRANCH  14  15
ATOM     15  C8  OHN d          36.842  26.569  11.273  0.00  0.00     0.007 C 
BRANCH  15  16
ATOM     16  C7  OHN d          38.096  27.420  11.399  0.00  0.00     0.000 C 
BRANCH  16  17
ATOM     17  C6  OHN d          39.094  26.752  12.350  0.00  0.00     0.000 C 
BRANCH  17  18
ATOM     18  C5  OHN d          40.358  27.596  12.395  0.00  0.00     0.000 C 
BRANCH  18  19
ATOM     19  C4  OHN d          41.419  26.885  13.207  0.00  0.00     0.000 C 
BRANCH  19  20
ATOM     20  C3  OHN d          42.192  25.927  12.322  0.00  0.00    -0.000 C 
BRANCH  20  21
ATOM     21  C2  OHN d          42.990  26.710  11.305  0.00  0.00    -0.005 C 
ATOM     22  C1  OHN d          43.730  25.715  10.455  0.00  0.00     0.005 C 
ENDBRANCH  20  21
ENDBRANCH  19  20
ENDBRANCH  18  19
ENDBRANCH  17  18
ENDBRANCH  16  17
ENDBRANCH  15  16
ENDBRANCH  14  15
ENDBRANCH   1  14
TORSDOF 11
ENDMDL
MODEL 19
REMARK VINA RESULT:      -4.5      3.474      6.577
REMARK  11 active torsions:
REMARK  status: ('A' for Active; 'I' for Inactive)
REMARK    1  A    between atoms: C3_3  and  C2_2 
REMARK    2  A    between atoms: C4_4  and  C3_3 
REMARK    3  A    between atoms: C5_5  and  C4_4 
REMARK    4  A    between atoms: C6_6  and  C5_5 
REMARK    5  A    between atoms: C7_7  and  C6_6 
REMARK    6  A    between atoms: C8_8  and  C7_7 
REMARK    7  A    between atoms: C9_9  and  C8_8 
REMARK    8  A    between atoms: C10_10  and  C9_9 
REMARK    9  A    between atoms: C11_12  and  C10_10 
REMARK   10  A    between atoms: C11_12  and  C12_13 
REMARK       I    between atoms: C12_13  and  N1_15 
REMARK   11  A    between atoms: C13_16  and  N1_15 
ROOT
ATOM      1  C10 OHN d          38.937  20.860  10.593  0.00  0.00     0.135 C 
ATOM      2  O1  OHN d          38.747  21.008   9.398  0.00  0.00    -0.297 OA
ENDROOT
BRANCH   1   3
ATOM      3  C11 OHN d          37.807  20.649  11.545  0.00  0.00     0.181 C 
BRANCH   3   4
ATOM      4  C12 OHN d          37.249  21.973  11.999  0.00  0.00     0.225 C 
ATOM      5  N1  OHN d          37.340  23.025  11.195  0.00  0.00    -0.347 N 
ATOM      6  H19 OHN d          37.794  22.970  10.295  0.00  0.00     0.163 HD
ATOM      7  O2  OHN d          36.739  22.024  13.093  0.00  0.00    -0.273 OA
BRANCH   5   8
ATOM      8  C13 OHN d          36.756  24.243  11.677  0.00  0.00     0.186 C 
ATOM      9  C14 OHN d          37.759  25.331  12.053  0.00  0.00     0.062 C 
ATOM     10  C15 OHN d          37.183  26.675  11.576  0.00  0.00     0.181 C 
ATOM     11  O4  OHN d          36.219  26.341  10.595  0.00  0.00    -0.320 OA
ATOM     12  C16 OHN d          35.959  24.941  10.643  0.00  0.00     0.281 C 
ATOM     13  O3  OHN d          35.161  24.401   9.925  0.00  0.00    -0.263 OA
ENDBRANCH   5   8
ENDBRANCH   3   4
ENDBRANCH   1   3
BRANCH   1  14
ATOM     14  C9  OHN d          40.319  20.944  11.155  0.00  0.00     0.079 C 
BRANCH  14  15
ATOM     15  C8  OHN d          41.114  22.076  10.550  0.00  0.00     0.007 C 
BRANCH  15  16
ATOM     16  C7  OHN d          41.297  23.070  11.686  0.00  0.00     0.000 C 
BRANCH  16  17
ATOM     17  C6  OHN d          42.783  23.396  11.867  0.00  0.00     0.000 C 
BRANCH  17  18
ATOM     18  C5  OHN d          43.297  24.034  10.586  0.00  0.00     0.000 C 
BRANCH  18  19
ATOM     19  C4  OHN d          44.111  25.265  10.919  0.00  0.00     0.000 C 
BRANCH  19  20
ATOM     20  C3  OHN d          43.235  26.501  10.839  0.00  0.00    -0.000 C 
BRANCH  20  21
ATOM     21  C2  OHN d          42.948  27.009  12.233  0.00  0.00    -0.005 C 
ATOM     22  C1  OHN d          41.454  27.102  12.376  0.00  0.00     0.005 C 
ENDBRANCH  20  21
ENDBRANCH  19  20
ENDBRANCH  18  19
ENDBRANCH  17  18
ENDBRANCH  16  17
ENDBRANCH  15  16
ENDBRANCH  14  15
ENDBRANCH   1  14
TORSDOF 11
ENDMDL
MODEL 20
REMARK VINA RESULT:      -4.5      3.366      5.099
REMARK  11 active torsions:
REMARK  status: ('A' for Active; 'I' for Inactive)
REMARK    1  A    between atoms: C3_3  and  C2_2 
REMARK    2  A    between atoms: C4_4  and  C3_3 
REMARK    3  A    between atoms: C5_5  and  C4_4 
REMARK    4  A    between atoms: C6_6  and  C5_5 
REMARK    5  A    between atoms: C7_7  and  C6_6 
REMARK    6  A    between atoms: C8_8  and  C7_7 
REMARK    7  A    between atoms: C9_9  and  C8_8 
REMARK    8  A    between atoms: C10_10  and  C9_9 
REMARK    9  A    between atoms: C11_12  and  C10_10 
REMARK   10  A    between atoms: C11_12  and  C12_13 
REMARK       I    between atoms: C12_13  and  N1_15 
REMARK   11  A    between atoms: C13_16  and  N1_15 
ROOT
ATOM      1  C10 OHN d          41.184  20.298  11.656  0.00  0.00     0.135 C 
ATOM      2  O1  OHN d          41.276  20.659  12.816  0.00  0.00    -0.297 OA
ENDROOT
BRANCH   1   3
ATOM      3  C11 OHN d          42.392  19.987  10.835  0.00  0.00     0.181 C 
BRANCH   3   4
ATOM      4  C12 OHN d          43.314  21.178  10.785  0.00  0.00     0.225 C 
ATOM      5  N1  OHN d          42.814  22.393  10.970  0.00  0.00    -0.347 N 
ATOM      6  H19 OHN d          41.828  22.546  11.121  0.00  0.00     0.163 HD
ATOM      7  O2  OHN d          44.485  20.975  10.570  0.00  0.00    -0.273 OA
BRANCH   5   8
ATOM      8  C13 OHN d          43.754  23.476  10.945  0.00  0.00     0.186 C 
ATOM      9  C14 OHN d          43.456  24.561   9.913  0.00  0.00     0.062 C 
ATOM     10  C15 OHN d          43.766  25.918  10.567  0.00  0.00     0.181 C 
ATOM     11  O4  OHN d          43.749  25.672  11.962  0.00  0.00    -0.320 OA
ATOM     12  C16 OHN d          43.746  24.267  12.196  0.00  0.00     0.281 C 
ATOM     13  O3  OHN d          43.753  23.789  13.299  0.00  0.00    -0.263 OA
ENDBRANCH   5   8
ENDBRANCH   3   4
ENDBRANCH   1   3
BRANCH   1  14
ATOM     14  C9  OHN d          39.847  20.212  10.994  0.00  0.00     0.079 C 
BRANCH  14  15
ATOM     15  C8  OHN d          39.766  21.071   9.755  0.00  0.00     0.007 C 
BRANCH  15  16
ATOM     16  C7  OHN d          38.315  21.522   9.692  0.00  0.00     0.000 C 
BRANCH  16  17
ATOM     17  C6  OHN d          37.732  21.621  11.106  0.00  0.00     0.000 C 
BRANCH  17  18
ATOM     18  C5  OHN d          37.474  23.086  11.420  0.00  0.00     0.000 C 
BRANCH  18  19
ATOM     19  C4  OHN d          36.265  23.569  10.649  0.00  0.00     0.000 C 
BRANCH  19  20
ATOM     20  C3  OHN d          36.038  25.045  10.914  0.00  0.00    -0.000 C 
BRANCH  20  21
ATOM     21  C2  OHN d          37.173  25.588  11.751  0.00  0.00    -0.005 C 
ATOM     22  C1  OHN d          37.463  26.980  11.260  0.00  0.00     0.005 C 
ENDBRANCH  20  21
ENDBRANCH  19  20
ENDBRANCH  18  19
ENDBRANCH  17  18
ENDBRANCH  16  17
ENDBRANCH  15  16
ENDBRANCH  14  15
ENDBRANCH   1  14
TORSDOF 11
ENDMDL
