MODEL 1
REMARK VINA RESULT:      -8.2      0.000      0.000
REMARK  11 active torsions:
REMARK  status: ('A' for Active; 'I' for Inactive)
REMARK    1  A    between atoms: C3_3  and  C2_2 
REMARK    2  A    between atoms: C4_4  and  C3_3 
REMARK    3  A    between atoms: C5_5  and  C4_4 
REMARK    4  A    between atoms: C6_6  and  C5_5 
REMARK    5  A    between atoms: C7_7  and  C6_6 
REMARK    6  A    between atoms: C8_8  and  C7_7 
REMARK    7  A    between atoms: C9_9  and  C8_8 
REMARK    8  A    between atoms: C10_10  and  C9_9 
REMARK    9  A    between atoms: C11_12  and  C10_10 
REMARK   10  A    between atoms: C11_12  and  C12_13 
REMARK       I    between atoms: C12_13  and  N1_15 
REMARK   11  A    between atoms: C13_16  and  N1_15 
ROOT
ATOM      1  C10 OHN d          39.459  17.514  -0.953  0.00  0.00     0.135 C 
ATOM      2  O1  OHN d          39.838  18.249  -1.848  0.00  0.00    -0.297 OA
ENDROOT
BRANCH   1   3
ATOM      3  C11 OHN d          38.614  18.020   0.169  0.00  0.00     0.181 C 
BRANCH   3   4
ATOM      4  C12 OHN d          38.376  19.500   0.022  0.00  0.00     0.225 C 
ATOM      5  N1  OHN d          39.415  20.326   0.012  0.00  0.00    -0.347 N 
ATOM      6  H19 OHN d          40.362  19.993   0.124  0.00  0.00     0.163 HD
ATOM      7  O2  OHN d          37.234  19.881  -0.076  0.00  0.00    -0.273 OA
BRANCH   5   8
ATOM      8  C13 OHN d          39.118  21.717  -0.167  0.00  0.00     0.186 C 
ATOM      9  C14 OHN d          39.398  22.595   1.050  0.00  0.00     0.062 C 
ATOM     10  C15 OHN d          40.005  23.913   0.540  0.00  0.00     0.181 C 
ATOM     11  O4  OHN d          40.490  23.621  -0.759  0.00  0.00    -0.320 OA
ATOM     12  C16 OHN d          39.983  22.359  -1.182  0.00  0.00     0.281 C 
ATOM     13  O3  OHN d          40.229  21.886  -2.259  0.00  0.00    -0.263 OA
ENDBRANCH   5   8
ENDBRANCH   3   4
ENDBRANCH   1   3
BRANCH   1  14
ATOM     14  C9  OHN d          39.883  16.081  -0.919  0.00  0.00     0.079 C 
BRANCH  14  15
ATOM     15  C8  OHN d          40.070  15.508  -2.303  0.00  0.00     0.007 C 
BRANCH  15  16
ATOM     16  C7  OHN d          41.549  15.166  -2.382  0.00  0.00     0.000 C 
BRANCH  16  17
ATOM     17  C6  OHN d          41.927  14.196  -1.258  0.00  0.00     0.000 C 
BRANCH  17  18
ATOM     18  C5  OHN d          41.686  12.776  -1.744  0.00  0.00     0.000 C 
BRANCH  18  19
ATOM     19  C4  OHN d          40.979  11.980  -0.668  0.00  0.00     0.000 C 
BRANCH  19  20
ATOM     20  C3  OHN d          40.908  12.791   0.612  0.00  0.00    -0.000 C 
BRANCH  20  21
ATOM     21  C2  OHN d          40.710  11.862   1.788  0.00  0.00    -0.005 C 
ATOM     22  C1  OHN d          40.951  10.462   1.296  0.00  0.00     0.005 C 
ENDBRANCH  20  21
ENDBRANCH  19  20
ENDBRANCH  18  19
ENDBRANCH  17  18
ENDBRANCH  16  17
ENDBRANCH  15  16
ENDBRANCH  14  15
ENDBRANCH   1  14
TORSDOF 11
ENDMDL
MODEL 2
REMARK VINA RESULT:      -7.8      0.999      1.385
REMARK  11 active torsions:
REMARK  status: ('A' for Active; 'I' for Inactive)
REMARK    1  A    between atoms: C3_3  and  C2_2 
REMARK    2  A    between atoms: C4_4  and  C3_3 
REMARK    3  A    between atoms: C5_5  and  C4_4 
REMARK    4  A    between atoms: C6_6  and  C5_5 
REMARK    5  A    between atoms: C7_7  and  C6_6 
REMARK    6  A    between atoms: C8_8  and  C7_7 
REMARK    7  A    between atoms: C9_9  and  C8_8 
REMARK    8  A    between atoms: C10_10  and  C9_9 
REMARK    9  A    between atoms: C11_12  and  C10_10 
REMARK   10  A    between atoms: C11_12  and  C12_13 
REMARK       I    between atoms: C12_13  and  N1_15 
REMARK   11  A    between atoms: C13_16  and  N1_15 
ROOT
ATOM      1  C10 OHN d          40.086  17.359  -2.462  0.00  0.00     0.135 C 
ATOM      2  O1  OHN d          40.052  18.334  -3.191  0.00  0.00    -0.297 OA
ENDROOT
BRANCH   1   3
ATOM      3  C11 OHN d          39.515  17.393  -1.083  0.00  0.00     0.181 C 
BRANCH   3   4
ATOM      4  C12 OHN d          38.971  18.763  -0.773  0.00  0.00     0.225 C 
ATOM      5  N1  OHN d          39.791  19.806  -0.793  0.00  0.00    -0.347 N 
ATOM      6  H19 OHN d          40.777  19.705  -0.987  0.00  0.00     0.163 HD
ATOM      7  O2  OHN d          37.795  18.857  -0.511  0.00  0.00    -0.273 OA
BRANCH   5   8
ATOM      8  C13 OHN d          39.198  21.084  -0.523  0.00  0.00     0.186 C 
ATOM      9  C14 OHN d          39.250  21.520   0.939  0.00  0.00     0.062 C 
ATOM     10  C15 OHN d          39.563  23.026   0.961  0.00  0.00     0.181 C 
ATOM     11  O4  OHN d          40.129  23.307  -0.306  0.00  0.00    -0.320 OA
ATOM     12  C16 OHN d          39.924  22.197  -1.175  0.00  0.00     0.281 C 
ATOM     13  O3  OHN d          40.292  22.188  -2.319  0.00  0.00    -0.263 OA
ENDBRANCH   5   8
ENDBRANCH   3   4
ENDBRANCH   1   3
BRANCH   1  14
ATOM     14  C9  OHN d          40.762  16.103  -2.909  0.00  0.00     0.079 C 
BRANCH  14  15
ATOM     15  C8  OHN d          40.492  14.946  -1.978  0.00  0.00     0.007 C 
BRANCH  15  16
ATOM     16  C7  OHN d          41.832  14.241  -1.839  0.00  0.00     0.000 C 
BRANCH  16  17
ATOM     17  C6  OHN d          41.627  12.818  -1.309  0.00  0.00     0.000 C 
BRANCH  17  18
ATOM     18  C5  OHN d          41.097  12.905   0.114  0.00  0.00     0.000 C 
BRANCH  18  19
ATOM     19  C4  OHN d          40.010  11.872   0.318  0.00  0.00     0.000 C 
BRANCH  19  20
ATOM     20  C3  OHN d          40.624  10.553   0.744  0.00  0.00    -0.000 C 
BRANCH  20  21
ATOM     21  C2  OHN d          41.111  10.659   2.171  0.00  0.00    -0.005 C 
ATOM     22  C1  OHN d          39.910  10.512   3.065  0.00  0.00     0.005 C 
ENDBRANCH  20  21
ENDBRANCH  19  20
ENDBRANCH  18  19
ENDBRANCH  17  18
ENDBRANCH  16  17
ENDBRANCH  15  16
ENDBRANCH  14  15
ENDBRANCH   1  14
TORSDOF 11
ENDMDL
MODEL 3
REMARK VINA RESULT:      -7.8      3.488      8.860
REMARK  11 active torsions:
REMARK  status: ('A' for Active; 'I' for Inactive)
REMARK    1  A    between atoms: C3_3  and  C2_2 
REMARK    2  A    between atoms: C4_4  and  C3_3 
REMARK    3  A    between atoms: C5_5  and  C4_4 
REMARK    4  A    between atoms: C6_6  and  C5_5 
REMARK    5  A    between atoms: C7_7  and  C6_6 
REMARK    6  A    between atoms: C8_8  and  C7_7 
REMARK    7  A    between atoms: C9_9  and  C8_8 
REMARK    8  A    between atoms: C10_10  and  C9_9 
REMARK    9  A    between atoms: C11_12  and  C10_10 
REMARK   10  A    between atoms: C11_12  and  C12_13 
REMARK       I    between atoms: C12_13  and  N1_15 
REMARK   11  A    between atoms: C13_16  and  N1_15 
ROOT
ATOM      1  C10 OHN d          39.362  15.408  -1.257  0.00  0.00     0.135 C 
ATOM      2  O1  OHN d          38.253  14.903  -1.227  0.00  0.00    -0.297 OA
ENDROOT
BRANCH   1   3
ATOM      3  C11 OHN d          40.556  14.646  -1.728  0.00  0.00     0.181 C 
BRANCH   3   4
ATOM      4  C12 OHN d          41.130  13.821  -0.606  0.00  0.00     0.225 C 
ATOM      5  N1  OHN d          40.306  13.208   0.235  0.00  0.00    -0.347 N 
ATOM      6  H19 OHN d          39.303  13.298   0.159  0.00  0.00     0.163 HD
ATOM      7  O2  OHN d          42.332  13.754  -0.513  0.00  0.00    -0.273 OA
BRANCH   5   8
ATOM      8  C13 OHN d          40.921  12.412   1.257  0.00  0.00     0.186 C 
ATOM      9  C14 OHN d          40.185  12.405   2.595  0.00  0.00     0.062 C 
ATOM     10  C15 OHN d          40.245  10.970   3.148  0.00  0.00     0.181 C 
ATOM     11  O4  OHN d          40.528  10.151   2.028  0.00  0.00    -0.320 OA
ATOM     12  C16 OHN d          40.923  10.968   0.930  0.00  0.00     0.281 C 
ATOM     13  O3  OHN d          41.238  10.516  -0.138  0.00  0.00    -0.263 OA
ENDBRANCH   5   8
ENDBRANCH   3   4
ENDBRANCH   1   3
BRANCH   1  14
ATOM     14  C9  OHN d          39.572  16.802  -0.760  0.00  0.00     0.079 C 
BRANCH  14  15
ATOM     15  C8  OHN d          39.902  17.763  -1.877  0.00  0.00     0.007 C 
BRANCH  15  16
ATOM     16  C7  OHN d          39.382  19.108  -1.395  0.00  0.00     0.000 C 
BRANCH  16  17
ATOM     17  C6  OHN d          38.278  18.903  -0.352  0.00  0.00     0.000 C 
BRANCH  17  18
ATOM     18  C5  OHN d          38.365  20.026   0.670  0.00  0.00     0.000 C 
BRANCH  18  19
ATOM     19  C4  OHN d          38.935  21.267   0.019  0.00  0.00     0.000 C 
BRANCH  19  20
ATOM     20  C3  OHN d          39.504  22.191   1.077  0.00  0.00    -0.000 C 
BRANCH  20  21
ATOM     21  C2  OHN d          39.779  23.547   0.469  0.00  0.00    -0.005 C 
ATOM     22  C1  OHN d          40.493  23.315  -0.834  0.00  0.00     0.005 C 
ENDBRANCH  20  21
ENDBRANCH  19  20
ENDBRANCH  18  19
ENDBRANCH  17  18
ENDBRANCH  16  17
ENDBRANCH  15  16
ENDBRANCH  14  15
ENDBRANCH   1  14
TORSDOF 11
ENDMDL
MODEL 4
REMARK VINA RESULT:      -7.6      3.658      8.787
REMARK  11 active torsions:
REMARK  status: ('A' for Active; 'I' for Inactive)
REMARK    1  A    between atoms: C3_3  and  C2_2 
REMARK    2  A    between atoms: C4_4  and  C3_3 
REMARK    3  A    between atoms: C5_5  and  C4_4 
REMARK    4  A    between atoms: C6_6  and  C5_5 
REMARK    5  A    between atoms: C7_7  and  C6_6 
REMARK    6  A    between atoms: C8_8  and  C7_7 
REMARK    7  A    between atoms: C9_9  and  C8_8 
REMARK    8  A    between atoms: C10_10  and  C9_9 
REMARK    9  A    between atoms: C11_12  and  C10_10 
REMARK   10  A    between atoms: C11_12  and  C12_13 
REMARK       I    between atoms: C12_13  and  N1_15 
REMARK   11  A    between atoms: C13_16  and  N1_15 
ROOT
ATOM      1  C10 OHN d          40.567  15.300  -1.882  0.00  0.00     0.135 C 
ATOM      2  O1  OHN d          41.527  15.424  -2.624  0.00  0.00    -0.297 OA
ENDROOT
BRANCH   1   3
ATOM      3  C11 OHN d          40.004  13.959  -1.550  0.00  0.00     0.181 C 
BRANCH   3   4
ATOM      4  C12 OHN d          40.694  13.383  -0.341  0.00  0.00     0.225 C 
ATOM      5  N1  OHN d          39.968  12.803   0.606  0.00  0.00    -0.347 N 
ATOM      6  H19 OHN d          38.961  12.756   0.552  0.00  0.00     0.163 HD
ATOM      7  O2  OHN d          41.897  13.480  -0.279  0.00  0.00    -0.273 OA
BRANCH   5   8
ATOM      8  C13 OHN d          40.694  12.246   1.710  0.00  0.00     0.186 C 
ATOM      9  C14 OHN d          40.057  12.475   3.079  0.00  0.00     0.062 C 
ATOM     10  C15 OHN d          40.230  11.181   3.892  0.00  0.00     0.181 C 
ATOM     11  O4  OHN d          40.475  10.169   2.933  0.00  0.00    -0.320 OA
ATOM     12  C16 OHN d          40.748  10.768   1.669  0.00  0.00     0.281 C 
ATOM     13  O3  OHN d          41.009  10.127   0.687  0.00  0.00    -0.263 OA
ENDBRANCH   5   8
ENDBRANCH   3   4
ENDBRANCH   1   3
BRANCH   1  14
ATOM     14  C9  OHN d          39.882  16.506  -1.325  0.00  0.00     0.079 C 
BRANCH  14  15
ATOM     15  C8  OHN d          39.951  17.687  -2.263  0.00  0.00     0.007 C 
BRANCH  15  16
ATOM     16  C7  OHN d          39.451  18.863  -1.439  0.00  0.00     0.000 C 
BRANCH  16  17
ATOM     17  C6  OHN d          38.626  18.361  -0.250  0.00  0.00     0.000 C 
BRANCH  17  18
ATOM     18  C5  OHN d          38.224  19.558   0.598  0.00  0.00     0.000 C 
BRANCH  18  19
ATOM     19  C4  OHN d          38.750  20.829  -0.030  0.00  0.00     0.000 C 
BRANCH  19  20
ATOM     20  C3  OHN d          39.246  21.772   1.049  0.00  0.00    -0.000 C 
BRANCH  20  21
ATOM     21  C2  OHN d          40.050  22.885   0.417  0.00  0.00    -0.005 C 
ATOM     22  C1  OHN d          40.380  22.457  -0.986  0.00  0.00     0.005 C 
ENDBRANCH  20  21
ENDBRANCH  19  20
ENDBRANCH  18  19
ENDBRANCH  17  18
ENDBRANCH  16  17
ENDBRANCH  15  16
ENDBRANCH  14  15
ENDBRANCH   1  14
TORSDOF 11
ENDMDL
MODEL 5
REMARK VINA RESULT:      -7.5      1.448      2.561
REMARK  11 active torsions:
REMARK  status: ('A' for Active; 'I' for Inactive)
REMARK    1  A    between atoms: C3_3  and  C2_2 
REMARK    2  A    between atoms: C4_4  and  C3_3 
REMARK    3  A    between atoms: C5_5  and  C4_4 
REMARK    4  A    between atoms: C6_6  and  C5_5 
REMARK    5  A    between atoms: C7_7  and  C6_6 
REMARK    6  A    between atoms: C8_8  and  C7_7 
REMARK    7  A    between atoms: C9_9  and  C8_8 
REMARK    8  A    between atoms: C10_10  and  C9_9 
REMARK    9  A    between atoms: C11_12  and  C10_10 
REMARK   10  A    between atoms: C11_12  and  C12_13 
REMARK       I    between atoms: C12_13  and  N1_15 
REMARK   11  A    between atoms: C13_16  and  N1_15 
ROOT
ATOM      1  C10 OHN d          40.730  15.809  -2.176  0.00  0.00     0.135 C 
ATOM      2  O1  OHN d          40.483  16.609  -3.062  0.00  0.00    -0.297 OA
ENDROOT
BRANCH   1   3
ATOM      3  C11 OHN d          40.031  15.862  -0.858  0.00  0.00     0.181 C 
BRANCH   3   4
ATOM      4  C12 OHN d          39.251  17.145  -0.727  0.00  0.00     0.225 C 
ATOM      5  N1  OHN d          39.895  18.304  -0.786  0.00  0.00    -0.347 N 
ATOM      6  H19 OHN d          40.898  18.352  -0.891  0.00  0.00     0.163 HD
ATOM      7  O2  OHN d          38.056  17.064  -0.568  0.00  0.00    -0.273 OA
BRANCH   5   8
ATOM      8  C13 OHN d          39.085  19.484  -0.690  0.00  0.00     0.186 C 
ATOM      9  C14 OHN d          38.736  19.910   0.734  0.00  0.00     0.062 C 
ATOM     10  C15 OHN d          38.825  21.444   0.792  0.00  0.00     0.181 C 
ATOM     11  O4  OHN d          39.625  21.813  -0.317  0.00  0.00    -0.320 OA
ATOM     12  C16 OHN d          39.781  20.693  -1.183  0.00  0.00     0.281 C 
ATOM     13  O3  OHN d          40.402  20.746  -2.211  0.00  0.00    -0.263 OA
ENDBRANCH   5   8
ENDBRANCH   3   4
ENDBRANCH   1   3
BRANCH   1  14
ATOM     14  C9  OHN d          41.794  14.776  -2.363  0.00  0.00     0.079 C 
BRANCH  14  15
ATOM     15  C8  OHN d          41.948  13.888  -1.152  0.00  0.00     0.007 C 
BRANCH  15  16
ATOM     16  C7  OHN d          41.478  12.519  -1.616  0.00  0.00     0.000 C 
BRANCH  16  17
ATOM     17  C6  OHN d          40.920  11.724  -0.431  0.00  0.00     0.000 C 
BRANCH  17  18
ATOM     18  C5  OHN d          41.366  12.398   0.856  0.00  0.00     0.000 C 
BRANCH  18  19
ATOM     19  C4  OHN d          40.274  12.288   1.897  0.00  0.00     0.000 C 
BRANCH  19  20
ATOM     20  C3  OHN d          39.880  10.836   2.081  0.00  0.00    -0.000 C 
BRANCH  20  21
ATOM     21  C2  OHN d          39.572  10.577   3.538  0.00  0.00    -0.005 C 
ATOM     22  C1  OHN d          39.780  11.871   4.276  0.00  0.00     0.005 C 
ENDBRANCH  20  21
ENDBRANCH  19  20
ENDBRANCH  18  19
ENDBRANCH  17  18
ENDBRANCH  16  17
ENDBRANCH  15  16
ENDBRANCH  14  15
ENDBRANCH   1  14
TORSDOF 11
ENDMDL
MODEL 6
REMARK VINA RESULT:      -7.5      3.248      8.764
REMARK  11 active torsions:
REMARK  status: ('A' for Active; 'I' for Inactive)
REMARK    1  A    between atoms: C3_3  and  C2_2 
REMARK    2  A    between atoms: C4_4  and  C3_3 
REMARK    3  A    between atoms: C5_5  and  C4_4 
REMARK    4  A    between atoms: C6_6  and  C5_5 
REMARK    5  A    between atoms: C7_7  and  C6_6 
REMARK    6  A    between atoms: C8_8  and  C7_7 
REMARK    7  A    between atoms: C9_9  and  C8_8 
REMARK    8  A    between atoms: C10_10  and  C9_9 
REMARK    9  A    between atoms: C11_12  and  C10_10 
REMARK   10  A    between atoms: C11_12  and  C12_13 
REMARK       I    between atoms: C12_13  and  N1_15 
REMARK   11  A    between atoms: C13_16  and  N1_15 
ROOT
ATOM      1  C10 OHN d          40.146  16.204  -2.346  0.00  0.00     0.135 C 
ATOM      2  O1  OHN d          40.766  16.574  -3.328  0.00  0.00    -0.297 OA
ENDROOT
BRANCH   1   3
ATOM      3  C11 OHN d          39.686  14.792  -2.198  0.00  0.00     0.181 C 
BRANCH   3   4
ATOM      4  C12 OHN d          40.546  14.061  -1.200  0.00  0.00     0.225 C 
ATOM      5  N1  OHN d          39.970  13.273  -0.301  0.00  0.00    -0.347 N 
ATOM      6  H19 OHN d          38.967  13.167  -0.251  0.00  0.00     0.163 HD
ATOM      7  O2  OHN d          41.741  14.229  -1.257  0.00  0.00    -0.273 OA
BRANCH   5   8
ATOM      8  C13 OHN d          40.851  12.582   0.594  0.00  0.00     0.186 C 
ATOM      9  C14 OHN d          40.280  12.323   1.986  0.00  0.00     0.062 C 
ATOM     10  C15 OHN d          40.719  10.912   2.411  0.00  0.00     0.181 C 
ATOM     11  O4  OHN d          41.061  10.249   1.207  0.00  0.00    -0.320 OA
ATOM     12  C16 OHN d          41.145  11.200   0.150  0.00  0.00     0.281 C 
ATOM     13  O3  OHN d          41.440  10.899  -0.976  0.00  0.00    -0.263 OA
ENDBRANCH   5   8
ENDBRANCH   3   4
ENDBRANCH   1   3
BRANCH   1  14
ATOM     14  C9  OHN d          39.771  17.179  -1.277  0.00  0.00     0.079 C 
BRANCH  14  15
ATOM     15  C8  OHN d          39.762  18.603  -1.780  0.00  0.00     0.007 C 
BRANCH  15  16
ATOM     16  C7  OHN d          38.543  19.235  -1.126  0.00  0.00     0.000 C 
BRANCH  16  17
ATOM     17  C6  OHN d          38.544  18.949   0.379  0.00  0.00     0.000 C 
BRANCH  17  18
ATOM     18  C5  OHN d          38.373  20.265   1.121  0.00  0.00     0.000 C 
BRANCH  18  19
ATOM     19  C4  OHN d          38.937  21.397   0.291  0.00  0.00     0.000 C 
BRANCH  19  20
ATOM     20  C3  OHN d          39.470  22.489   1.198  0.00  0.00    -0.000 C 
BRANCH  20  21
ATOM     21  C2  OHN d          40.049  23.605   0.359  0.00  0.00    -0.005 C 
ATOM     22  C1  OHN d          40.377  23.027  -0.989  0.00  0.00     0.005 C 
ENDBRANCH  20  21
ENDBRANCH  19  20
ENDBRANCH  18  19
ENDBRANCH  17  18
ENDBRANCH  16  17
ENDBRANCH  15  16
ENDBRANCH  14  15
ENDBRANCH   1  14
TORSDOF 11
ENDMDL
MODEL 7
REMARK VINA RESULT:      -7.4      3.746      8.848
REMARK  11 active torsions:
REMARK  status: ('A' for Active; 'I' for Inactive)
REMARK    1  A    between atoms: C3_3  and  C2_2 
REMARK    2  A    between atoms: C4_4  and  C3_3 
REMARK    3  A    between atoms: C5_5  and  C4_4 
REMARK    4  A    between atoms: C6_6  and  C5_5 
REMARK    5  A    between atoms: C7_7  and  C6_6 
REMARK    6  A    between atoms: C8_8  and  C7_7 
REMARK    7  A    between atoms: C9_9  and  C8_8 
REMARK    8  A    between atoms: C10_10  and  C9_9 
REMARK    9  A    between atoms: C11_12  and  C10_10 
REMARK   10  A    between atoms: C11_12  and  C12_13 
REMARK       I    between atoms: C12_13  and  N1_15 
REMARK   11  A    between atoms: C13_16  and  N1_15 
ROOT
ATOM      1  C10 OHN d          39.324  14.879  -1.512  0.00  0.00     0.135 C 
ATOM      2  O1  OHN d          38.148  14.645  -1.297  0.00  0.00    -0.297 OA
ENDROOT
BRANCH   1   3
ATOM      3  C11 OHN d          40.300  13.787  -1.800  0.00  0.00     0.181 C 
BRANCH   3   4
ATOM      4  C12 OHN d          40.912  13.278  -0.520  0.00  0.00     0.225 C 
ATOM      5  N1  OHN d          40.124  12.762   0.414  0.00  0.00    -0.347 N 
ATOM      6  H19 OHN d          39.121  12.722   0.304  0.00  0.00     0.163 HD
ATOM      7  O2  OHN d          42.110  13.366  -0.394  0.00  0.00    -0.273 OA
BRANCH   5   8
ATOM      8  C13 OHN d          40.777  12.265   1.590  0.00  0.00     0.186 C 
ATOM      9  C14 OHN d          40.062  12.576   2.903  0.00  0.00     0.062 C 
ATOM     10  C15 OHN d          40.173  11.330   3.797  0.00  0.00     0.181 C 
ATOM     11  O4  OHN d          40.464  10.262   2.914  0.00  0.00    -0.320 OA
ATOM     12  C16 OHN d          40.819  10.786   1.637  0.00  0.00     0.281 C 
ATOM     13  O3  OHN d          41.131  10.088   0.710  0.00  0.00    -0.263 OA
ENDBRANCH   5   8
ENDBRANCH   3   4
ENDBRANCH   1   3
BRANCH   1  14
ATOM     14  C9  OHN d          39.843  16.279  -1.433  0.00  0.00     0.079 C 
BRANCH  14  15
ATOM     15  C8  OHN d          40.367  16.769  -2.761  0.00  0.00     0.007 C 
BRANCH  15  16
ATOM     16  C7  OHN d          40.036  18.253  -2.783  0.00  0.00     0.000 C 
BRANCH  16  17
ATOM     17  C6  OHN d          39.416  18.674  -1.446  0.00  0.00     0.000 C 
BRANCH  17  18
ATOM     18  C5  OHN d          39.687  20.155  -1.233  0.00  0.00     0.000 C 
BRANCH  18  19
ATOM     19  C4  OHN d          38.807  20.681  -0.120  0.00  0.00     0.000 C 
BRANCH  19  20
ATOM     20  C3  OHN d          39.509  21.816   0.601  0.00  0.00    -0.000 C 
BRANCH  20  21
ATOM     21  C2  OHN d          40.191  22.711  -0.408  0.00  0.00    -0.005 C 
ATOM     22  C1  OHN d          40.170  24.108   0.148  0.00  0.00     0.005 C 
ENDBRANCH  20  21
ENDBRANCH  19  20
ENDBRANCH  18  19
ENDBRANCH  17  18
ENDBRANCH  16  17
ENDBRANCH  15  16
ENDBRANCH  14  15
ENDBRANCH   1  14
TORSDOF 11
ENDMDL
MODEL 8
REMARK VINA RESULT:      -7.4      2.424      4.662
REMARK  11 active torsions:
REMARK  status: ('A' for Active; 'I' for Inactive)
REMARK    1  A    between atoms: C3_3  and  C2_2 
REMARK    2  A    between atoms: C4_4  and  C3_3 
REMARK    3  A    between atoms: C5_5  and  C4_4 
REMARK    4  A    between atoms: C6_6  and  C5_5 
REMARK    5  A    between atoms: C7_7  and  C6_6 
REMARK    6  A    between atoms: C8_8  and  C7_7 
REMARK    7  A    between atoms: C9_9  and  C8_8 
REMARK    8  A    between atoms: C10_10  and  C9_9 
REMARK    9  A    between atoms: C11_12  and  C10_10 
REMARK   10  A    between atoms: C11_12  and  C12_13 
REMARK       I    between atoms: C12_13  and  N1_15 
REMARK   11  A    between atoms: C13_16  and  N1_15 
ROOT
ATOM      1  C10 OHN d          41.571  13.018  -1.502  0.00  0.00     0.135 C 
ATOM      2  O1  OHN d          41.727  12.036  -2.208  0.00  0.00    -0.297 OA
ENDROOT
BRANCH   1   3
ATOM      3  C11 OHN d          41.935  14.386  -1.973  0.00  0.00     0.181 C 
BRANCH   3   4
ATOM      4  C12 OHN d          40.715  15.269  -2.016  0.00  0.00     0.225 C 
ATOM      5  N1  OHN d          40.644  16.316  -1.205  0.00  0.00    -0.347 N 
ATOM      6  H19 OHN d          41.375  16.527  -0.540  0.00  0.00     0.163 HD
ATOM      7  O2  OHN d          39.838  14.981  -2.795  0.00  0.00    -0.273 OA
BRANCH   5   8
ATOM      8  C13 OHN d          39.471  17.133  -1.324  0.00  0.00     0.186 C 
ATOM      9  C14 OHN d          38.920  17.663  -0.003  0.00  0.00     0.062 C 
ATOM     10  C15 OHN d          38.467  19.114  -0.239  0.00  0.00     0.181 C 
ATOM     11  O4  OHN d          39.147  19.530  -1.409  0.00  0.00    -0.320 OA
ATOM     12  C16 OHN d          39.729  18.398  -2.049  0.00  0.00     0.281 C 
ATOM     13  O3  OHN d          40.347  18.476  -3.076  0.00  0.00    -0.263 OA
ENDBRANCH   5   8
ENDBRANCH   3   4
ENDBRANCH   1   3
BRANCH   1  14
ATOM     14  C9  OHN d          41.061  12.871  -0.104  0.00  0.00     0.079 C 
BRANCH  14  15
ATOM     15  C8  OHN d          39.630  12.391  -0.066  0.00  0.00     0.007 C 
BRANCH  15  16
ATOM     16  C7  OHN d          39.671  11.126   0.777  0.00  0.00     0.000 C 
BRANCH  16  17
ATOM     17  C6  OHN d          41.073  10.510   0.737  0.00  0.00     0.000 C 
BRANCH  17  18
ATOM     18  C5  OHN d          41.481  10.142   2.155  0.00  0.00     0.000 C 
BRANCH  18  19
ATOM     19  C4  OHN d          40.348  10.453   3.109  0.00  0.00     0.000 C 
BRANCH  19  20
ATOM     20  C3  OHN d          40.654  11.725   3.876  0.00  0.00    -0.000 C 
BRANCH  20  21
ATOM     21  C2  OHN d          39.378  12.273   4.475  0.00  0.00    -0.005 C 
ATOM     22  C1  OHN d          38.431  11.117   4.642  0.00  0.00     0.005 C 
ENDBRANCH  20  21
ENDBRANCH  19  20
ENDBRANCH  18  19
ENDBRANCH  17  18
ENDBRANCH  16  17
ENDBRANCH  15  16
ENDBRANCH  14  15
ENDBRANCH   1  14
TORSDOF 11
ENDMDL
MODEL 9
REMARK VINA RESULT:      -7.4      3.397      8.747
REMARK  11 active torsions:
REMARK  status: ('A' for Active; 'I' for Inactive)
REMARK    1  A    between atoms: C3_3  and  C2_2 
REMARK    2  A    between atoms: C4_4  and  C3_3 
REMARK    3  A    between atoms: C5_5  and  C4_4 
REMARK    4  A    between atoms: C6_6  and  C5_5 
REMARK    5  A    between atoms: C7_7  and  C6_6 
REMARK    6  A    between atoms: C8_8  and  C7_7 
REMARK    7  A    between atoms: C9_9  and  C8_8 
REMARK    8  A    between atoms: C10_10  and  C9_9 
REMARK    9  A    between atoms: C11_12  and  C10_10 
REMARK   10  A    between atoms: C11_12  and  C12_13 
REMARK       I    between atoms: C12_13  and  N1_15 
REMARK   11  A    between atoms: C13_16  and  N1_15 
ROOT
ATOM      1  C10 OHN d          40.323  15.522  -2.042  0.00  0.00     0.135 C 
ATOM      2  O1  OHN d          39.579  14.923  -2.800  0.00  0.00    -0.297 OA
ENDROOT
BRANCH   1   3
ATOM      3  C11 OHN d          41.670  14.988  -1.683  0.00  0.00     0.181 C 
BRANCH   3   4
ATOM      4  C12 OHN d          41.556  13.577  -1.168  0.00  0.00     0.225 C 
ATOM      5  N1  OHN d          41.199  13.375   0.094  0.00  0.00    -0.347 N 
ATOM      6  H19 OHN d          41.024  14.141   0.728  0.00  0.00     0.163 HD
ATOM      7  O2  OHN d          41.802  12.676  -1.934  0.00  0.00    -0.273 OA
BRANCH   5   8
ATOM      8  C13 OHN d          41.076  12.007   0.506  0.00  0.00     0.186 C 
ATOM      9  C14 OHN d          41.582  11.713   1.916  0.00  0.00     0.062 C 
ATOM     10  C15 OHN d          40.599  10.721   2.563  0.00  0.00     0.181 C 
ATOM     11  O4  OHN d          39.406  10.833   1.808  0.00  0.00    -0.320 OA
ATOM     12  C16 OHN d          39.666  11.570   0.616  0.00  0.00     0.281 C 
ATOM     13  O3  OHN d          38.822  11.790  -0.211  0.00  0.00    -0.263 OA
ENDBRANCH   5   8
ENDBRANCH   3   4
ENDBRANCH   1   3
BRANCH   1  14
ATOM     14  C9  OHN d          39.878  16.794  -1.395  0.00  0.00     0.079 C 
BRANCH  14  15
ATOM     15  C8  OHN d          39.925  17.966  -2.345  0.00  0.00     0.007 C 
BRANCH  15  16
ATOM     16  C7  OHN d          39.482  19.157  -1.511  0.00  0.00     0.000 C 
BRANCH  16  17
ATOM     17  C6  OHN d          38.509  18.702  -0.418  0.00  0.00     0.000 C 
BRANCH  17  18
ATOM     18  C5  OHN d          38.408  19.802   0.627  0.00  0.00     0.000 C 
BRANCH  18  19
ATOM     19  C4  OHN d          38.785  21.131   0.009  0.00  0.00     0.000 C 
BRANCH  19  20
ATOM     20  C3  OHN d          39.242  22.092   1.089  0.00  0.00    -0.000 C 
BRANCH  20  21
ATOM     21  C2  OHN d          40.019  23.226   0.461  0.00  0.00    -0.005 C 
ATOM     22  C1  OHN d          40.464  22.763  -0.899  0.00  0.00     0.005 C 
ENDBRANCH  20  21
ENDBRANCH  19  20
ENDBRANCH  18  19
ENDBRANCH  17  18
ENDBRANCH  16  17
ENDBRANCH  15  16
ENDBRANCH  14  15
ENDBRANCH   1  14
TORSDOF 11
ENDMDL
MODEL 10
REMARK VINA RESULT:      -7.3      3.429      8.822
REMARK  11 active torsions:
REMARK  status: ('A' for Active; 'I' for Inactive)
REMARK    1  A    between atoms: C3_3  and  C2_2 
REMARK    2  A    between atoms: C4_4  and  C3_3 
REMARK    3  A    between atoms: C5_5  and  C4_4 
REMARK    4  A    between atoms: C6_6  and  C5_5 
REMARK    5  A    between atoms: C7_7  and  C6_6 
REMARK    6  A    between atoms: C8_8  and  C7_7 
REMARK    7  A    between atoms: C9_9  and  C8_8 
REMARK    8  A    between atoms: C10_10  and  C9_9 
REMARK    9  A    between atoms: C11_12  and  C10_10 
REMARK   10  A    between atoms: C11_12  and  C12_13 
REMARK       I    between atoms: C12_13  and  N1_15 
REMARK   11  A    between atoms: C13_16  and  N1_15 
ROOT
ATOM      1  C10 OHN d          40.213  15.501  -1.911  0.00  0.00     0.135 C 
ATOM      2  O1  OHN d          39.757  15.166  -2.991  0.00  0.00    -0.297 OA
ENDROOT
BRANCH   1   3
ATOM      3  C11 OHN d          41.198  14.650  -1.180  0.00  0.00     0.181 C 
BRANCH   3   4
ATOM      4  C12 OHN d          40.499  13.507  -0.493  0.00  0.00     0.225 C 
ATOM      5  N1  OHN d          41.044  12.970   0.591  0.00  0.00    -0.347 N 
ATOM      6  H19 OHN d          41.929  13.290   0.956  0.00  0.00     0.163 HD
ATOM      7  O2  OHN d          39.458  13.117  -0.966  0.00  0.00    -0.273 OA
BRANCH   5   8
ATOM      8  C13 OHN d          40.306  11.909   1.213  0.00  0.00     0.186 C 
ATOM      9  C14 OHN d          40.903  10.516   1.027  0.00  0.00     0.062 C 
ATOM     10  C15 OHN d          40.745   9.764   2.359  0.00  0.00     0.181 C 
ATOM     11  O4  OHN d          40.551  10.771   3.336  0.00  0.00    -0.320 OA
ATOM     12  C16 OHN d          40.293  12.015   2.690  0.00  0.00     0.281 C 
ATOM     13  O3  OHN d          40.074  13.030   3.294  0.00  0.00    -0.263 OA
ENDBRANCH   5   8
ENDBRANCH   3   4
ENDBRANCH   1   3
BRANCH   1  14
ATOM     14  C9  OHN d          39.746  16.758  -1.250  0.00  0.00     0.079 C 
BRANCH  14  15
ATOM     15  C8  OHN d          39.881  17.961  -2.152  0.00  0.00     0.007 C 
BRANCH  15  16
ATOM     16  C7  OHN d          39.243  19.100  -1.373  0.00  0.00     0.000 C 
BRANCH  16  17
ATOM     17  C6  OHN d          38.527  18.555  -0.133  0.00  0.00     0.000 C 
BRANCH  17  18
ATOM     18  C5  OHN d          38.243  19.714   0.810  0.00  0.00     0.000 C 
BRANCH  18  19
ATOM     19  C4  OHN d          38.630  21.018   0.148  0.00  0.00     0.000 C 
BRANCH  19  20
ATOM     20  C3  OHN d          39.335  21.916   1.146  0.00  0.00    -0.000 C 
BRANCH  20  21
ATOM     21  C2  OHN d          39.879  23.133   0.434  0.00  0.00    -0.005 C 
ATOM     22  C1  OHN d          40.499  22.660  -0.852  0.00  0.00     0.005 C 
ENDBRANCH  20  21
ENDBRANCH  19  20
ENDBRANCH  18  19
ENDBRANCH  17  18
ENDBRANCH  16  17
ENDBRANCH  15  16
ENDBRANCH  14  15
ENDBRANCH   1  14
TORSDOF 11
ENDMDL
MODEL 11
REMARK VINA RESULT:      -7.3      1.937      3.462
REMARK  11 active torsions:
REMARK  status: ('A' for Active; 'I' for Inactive)
REMARK    1  A    between atoms: C3_3  and  C2_2 
REMARK    2  A    between atoms: C4_4  and  C3_3 
REMARK    3  A    between atoms: C5_5  and  C4_4 
REMARK    4  A    between atoms: C6_6  and  C5_5 
REMARK    5  A    between atoms: C7_7  and  C6_6 
REMARK    6  A    between atoms: C8_8  and  C7_7 
REMARK    7  A    between atoms: C9_9  and  C8_8 
REMARK    8  A    between atoms: C10_10  and  C9_9 
REMARK    9  A    between atoms: C11_12  and  C10_10 
REMARK   10  A    between atoms: C11_12  and  C12_13 
REMARK       I    between atoms: C12_13  and  N1_15 
REMARK   11  A    between atoms: C13_16  and  N1_15 
ROOT
ATOM      1  C10 OHN d          38.906  14.348  -2.071  0.00  0.00     0.135 C 
ATOM      2  O1  OHN d          39.102  14.614  -3.244  0.00  0.00    -0.297 OA
ENDROOT
BRANCH   1   3
ATOM      3  C11 OHN d          38.087  15.234  -1.193  0.00  0.00     0.181 C 
BRANCH   3   4
ATOM      4  C12 OHN d          38.874  16.457  -0.800  0.00  0.00     0.225 C 
ATOM      5  N1  OHN d          38.272  17.639  -0.787  0.00  0.00    -0.347 N 
ATOM      6  H19 OHN d          37.304  17.748  -1.056  0.00  0.00     0.163 HD
ATOM      7  O2  OHN d          40.039  16.310  -0.514  0.00  0.00    -0.273 OA
BRANCH   5   8
ATOM      8  C13 OHN d          39.071  18.754  -0.369  0.00  0.00     0.186 C 
ATOM      9  C14 OHN d          39.677  19.572  -1.507  0.00  0.00     0.062 C 
ATOM     10  C15 OHN d          39.584  21.056  -1.110  0.00  0.00     0.181 C 
ATOM     11  O4  OHN d          38.585  21.111  -0.107  0.00  0.00    -0.320 OA
ATOM     12  C16 OHN d          38.281  19.790   0.333  0.00  0.00     0.281 C 
ATOM     13  O3  OHN d          37.478  19.560   1.196  0.00  0.00    -0.263 OA
ENDBRANCH   5   8
ENDBRANCH   3   4
ENDBRANCH   1   3
BRANCH   1  14
ATOM     14  C9  OHN d          39.539  13.142  -1.454  0.00  0.00     0.079 C 
BRANCH  14  15
ATOM     15  C8  OHN d          41.026  13.086  -1.705  0.00  0.00     0.007 C 
BRANCH  15  16
ATOM     16  C7  OHN d          41.604  12.435  -0.457  0.00  0.00     0.000 C 
BRANCH  16  17
ATOM     17  C6  OHN d          40.473  11.921   0.440  0.00  0.00     0.000 C 
BRANCH  17  18
ATOM     18  C5  OHN d          40.901  10.592   1.043  0.00  0.00     0.000 C 
BRANCH  18  19
ATOM     19  C4  OHN d          40.618  10.590   2.529  0.00  0.00     0.000 C 
BRANCH  19  20
ATOM     20  C3  OHN d          40.487  12.014   3.033  0.00  0.00    -0.000 C 
BRANCH  20  21
ATOM     21  C2  OHN d          39.843  12.010   4.400  0.00  0.00    -0.005 C 
ATOM     22  C1  OHN d          38.783  10.943   4.391  0.00  0.00     0.005 C 
ENDBRANCH  20  21
ENDBRANCH  19  20
ENDBRANCH  18  19
ENDBRANCH  17  18
ENDBRANCH  16  17
ENDBRANCH  15  16
ENDBRANCH  14  15
ENDBRANCH   1  14
TORSDOF 11
ENDMDL
MODEL 12
REMARK VINA RESULT:      -7.0      2.810      8.579
REMARK  11 active torsions:
REMARK  status: ('A' for Active; 'I' for Inactive)
REMARK    1  A    between atoms: C3_3  and  C2_2 
REMARK    2  A    between atoms: C4_4  and  C3_3 
REMARK    3  A    between atoms: C5_5  and  C4_4 
REMARK    4  A    between atoms: C6_6  and  C5_5 
REMARK    5  A    between atoms: C7_7  and  C6_6 
REMARK    6  A    between atoms: C8_8  and  C7_7 
REMARK    7  A    between atoms: C9_9  and  C8_8 
REMARK    8  A    between atoms: C10_10  and  C9_9 
REMARK    9  A    between atoms: C11_12  and  C10_10 
REMARK   10  A    between atoms: C11_12  and  C12_13 
REMARK       I    between atoms: C12_13  and  N1_15 
REMARK   11  A    between atoms: C13_16  and  N1_15 
ROOT
ATOM      1  C10 OHN d          39.756  17.444  -1.438  0.00  0.00     0.135 C 
ATOM      2  O1  OHN d          39.646  16.768  -0.429  0.00  0.00    -0.297 OA
ENDROOT
BRANCH   1   3
ATOM      3  C11 OHN d          40.239  16.858  -2.723  0.00  0.00     0.181 C 
BRANCH   3   4
ATOM      4  C12 OHN d          40.085  15.359  -2.707  0.00  0.00     0.225 C 
ATOM      5  N1  OHN d          40.783  14.645  -1.834  0.00  0.00    -0.347 N 
ATOM      6  H19 OHN d          41.434  15.075  -1.192  0.00  0.00     0.163 HD
ATOM      7  O2  OHN d          39.327  14.862  -3.505  0.00  0.00    -0.273 OA
BRANCH   5   8
ATOM      8  C13 OHN d          40.561  13.228  -1.851  0.00  0.00     0.186 C 
ATOM      9  C14 OHN d          41.785  12.382  -1.508  0.00  0.00     0.062 C 
ATOM     10  C15 OHN d          41.307  11.215  -0.627  0.00  0.00     0.181 C 
ATOM     11  O4  OHN d          40.058  11.629  -0.105  0.00  0.00    -0.320 OA
ATOM     12  C16 OHN d          39.612  12.787  -0.804  0.00  0.00     0.281 C 
ATOM     13  O3  OHN d          38.565  13.329  -0.568  0.00  0.00    -0.263 OA
ENDBRANCH   5   8
ENDBRANCH   3   4
ENDBRANCH   1   3
BRANCH   1  14
ATOM     14  C9  OHN d          39.466  18.910  -1.402  0.00  0.00     0.079 C 
BRANCH  14  15
ATOM     15  C8  OHN d          38.160  19.216  -0.710  0.00  0.00     0.007 C 
BRANCH  15  16
ATOM     16  C7  OHN d          38.554  19.589   0.711  0.00  0.00     0.000 C 
BRANCH  16  17
ATOM     17  C6  OHN d          38.301  21.081   0.954  0.00  0.00     0.000 C 
BRANCH  17  18
ATOM     18  C5  OHN d          39.634  21.755   1.241  0.00  0.00     0.000 C 
BRANCH  18  19
ATOM     19  C4  OHN d          39.503  23.250   1.045  0.00  0.00     0.000 C 
BRANCH  19  20
ATOM     20  C3  OHN d          40.203  23.666  -0.235  0.00  0.00    -0.000 C 
BRANCH  20  21
ATOM     21  C2  OHN d          40.806  22.450  -0.900  0.00  0.00    -0.005 C 
ATOM     22  C1  OHN d          40.121  22.282  -2.228  0.00  0.00     0.005 C 
ENDBRANCH  20  21
ENDBRANCH  19  20
ENDBRANCH  18  19
ENDBRANCH  17  18
ENDBRANCH  16  17
ENDBRANCH  15  16
ENDBRANCH  14  15
ENDBRANCH   1  14
TORSDOF 11
ENDMDL
MODEL 13
REMARK VINA RESULT:      -6.7      1.265      1.771
REMARK  11 active torsions:
REMARK  status: ('A' for Active; 'I' for Inactive)
REMARK    1  A    between atoms: C3_3  and  C2_2 
REMARK    2  A    between atoms: C4_4  and  C3_3 
REMARK    3  A    between atoms: C5_5  and  C4_4 
REMARK    4  A    between atoms: C6_6  and  C5_5 
REMARK    5  A    between atoms: C7_7  and  C6_6 
REMARK    6  A    between atoms: C8_8  and  C7_7 
REMARK    7  A    between atoms: C9_9  and  C8_8 
REMARK    8  A    between atoms: C10_10  and  C9_9 
REMARK    9  A    between atoms: C11_12  and  C10_10 
REMARK   10  A    between atoms: C11_12  and  C12_13 
REMARK       I    between atoms: C12_13  and  N1_15 
REMARK   11  A    between atoms: C13_16  and  N1_15 
ROOT
ATOM      1  C10 OHN d          39.195  17.502  -0.345  0.00  0.00     0.135 C 
ATOM      2  O1  OHN d          38.939  17.756   0.819  0.00  0.00    -0.297 OA
ENDROOT
BRANCH   1   3
ATOM      3  C11 OHN d          38.797  18.422  -1.452  0.00  0.00     0.181 C 
BRANCH   3   4
ATOM      4  C12 OHN d          39.629  19.677  -1.417  0.00  0.00     0.225 C 
ATOM      5  N1  OHN d          39.443  20.551  -0.436  0.00  0.00    -0.347 N 
ATOM      6  H19 OHN d          38.742  20.411   0.277  0.00  0.00     0.163 HD
ATOM      7  O2  OHN d          40.439  19.842  -2.298  0.00  0.00    -0.273 OA
BRANCH   5   8
ATOM      8  C13 OHN d          40.294  21.706  -0.446  0.00  0.00     0.186 C 
ATOM      9  C14 OHN d          40.075  22.655  -1.621  0.00  0.00     0.062 C 
ATOM     10  C15 OHN d          40.182  24.091  -1.082  0.00  0.00     0.181 C 
ATOM     11  O4  OHN d          39.973  23.981   0.314  0.00  0.00    -0.320 OA
ATOM     12  C16 OHN d          40.039  22.610   0.698  0.00  0.00     0.281 C 
ATOM     13  O3  OHN d          39.914  22.245   1.836  0.00  0.00    -0.263 OA
ENDBRANCH   5   8
ENDBRANCH   3   4
ENDBRANCH   1   3
BRANCH   1  14
ATOM     14  C9  OHN d          39.869  16.219  -0.709  0.00  0.00     0.079 C 
BRANCH  14  15
ATOM     15  C8  OHN d          39.811  15.944  -2.192  0.00  0.00     0.007 C 
BRANCH  15  16
ATOM     16  C7  OHN d          41.199  15.432  -2.544  0.00  0.00     0.000 C 
BRANCH  16  17
ATOM     17  C6  OHN d          41.781  14.638  -1.370  0.00  0.00     0.000 C 
BRANCH  17  18
ATOM     18  C5  OHN d          41.844  13.170  -1.762  0.00  0.00     0.000 C 
BRANCH  18  19
ATOM     19  C4  OHN d          40.934  12.361  -0.865  0.00  0.00     0.000 C 
BRANCH  19  20
ATOM     20  C3  OHN d          41.134  12.773   0.581  0.00  0.00    -0.000 C 
BRANCH  20  21
ATOM     21  C2  OHN d          40.383  11.823   1.485  0.00  0.00    -0.005 C 
ATOM     22  C1  OHN d          40.997  10.461   1.311  0.00  0.00     0.005 C 
ENDBRANCH  20  21
ENDBRANCH  19  20
ENDBRANCH  18  19
ENDBRANCH  17  18
ENDBRANCH  16  17
ENDBRANCH  15  16
ENDBRANCH  14  15
ENDBRANCH   1  14
TORSDOF 11
ENDMDL
