MODEL 1
REMARK VINA RESULT:      -4.7      0.000      0.000
REMARK  11 active torsions:
REMARK  status: ('A' for Active; 'I' for Inactive)
REMARK    1  A    between atoms: C3_3  and  C2_2 
REMARK    2  A    between atoms: C4_4  and  C3_3 
REMARK    3  A    between atoms: C5_5  and  C4_4 
REMARK    4  A    between atoms: C6_6  and  C5_5 
REMARK    5  A    between atoms: C7_7  and  C6_6 
REMARK    6  A    between atoms: C8_8  and  C7_7 
REMARK    7  A    between atoms: C9_9  and  C8_8 
REMARK    8  A    between atoms: C10_10  and  C9_9 
REMARK    9  A    between atoms: C11_12  and  C10_10 
REMARK   10  A    between atoms: C11_12  and  C12_13 
REMARK       I    between atoms: C12_13  and  N1_15 
REMARK   11  A    between atoms: C13_16  and  N1_15 
ROOT
ATOM      1  C10 OHN d          39.410  -2.368   8.076  0.00  0.00     0.135 C 
ATOM      2  O1  OHN d          39.027  -3.313   8.743  0.00  0.00    -0.297 OA
ENDROOT
BRANCH   1   3
ATOM      3  C11 OHN d          38.785  -2.034   6.762  0.00  0.00     0.181 C 
BRANCH   3   4
ATOM      4  C12 OHN d          37.890  -3.156   6.305  0.00  0.00     0.225 C 
ATOM      5  N1  OHN d          38.436  -4.266   5.825  0.00  0.00    -0.347 N 
ATOM      6  H19 OHN d          39.436  -4.372   5.734  0.00  0.00     0.163 HD
ATOM      7  O2  OHN d          36.696  -2.995   6.391  0.00  0.00    -0.273 OA
BRANCH   5   8
ATOM      8  C13 OHN d          37.525  -5.306   5.442  0.00  0.00     0.186 C 
ATOM      9  C14 OHN d          37.791  -5.918   4.069  0.00  0.00     0.062 C 
ATOM     10  C15 OHN d          37.558  -7.434   4.186  0.00  0.00     0.181 C 
ATOM     11  O4  OHN d          37.651  -7.720   5.569  0.00  0.00    -0.320 OA
ATOM     12  C16 OHN d          37.630  -6.502   6.308  0.00  0.00     0.281 C 
ATOM     13  O3  OHN d          37.676  -6.466   7.508  0.00  0.00    -0.263 OA
ENDBRANCH   5   8
ENDBRANCH   3   4
ENDBRANCH   1   3
BRANCH   1  14
ATOM     14  C9  OHN d          40.571  -1.543   8.529  0.00  0.00     0.079 C 
BRANCH  14  15
ATOM     15  C8  OHN d          40.482  -1.189   9.994  0.00  0.00     0.007 C 
BRANCH  15  16
ATOM     16  C7  OHN d          41.580  -0.158  10.209  0.00  0.00     0.000 C 
BRANCH  16  17
ATOM     17  C6  OHN d          42.303   0.125   8.888  0.00  0.00     0.000 C 
BRANCH  17  18
ATOM     18  C5  OHN d          42.487   1.628   8.751  0.00  0.00     0.000 C 
BRANCH  18  19
ATOM     19  C4  OHN d          41.503   2.173   7.739  0.00  0.00     0.000 C 
BRANCH  19  20
ATOM     20  C3  OHN d          40.306   2.770   8.453  0.00  0.00    -0.000 C 
BRANCH  20  21
ATOM     21  C2  OHN d          39.084   1.923   8.184  0.00  0.00    -0.005 C 
ATOM     22  C1  OHN d          38.994   1.726   6.696  0.00  0.00     0.005 C 
ENDBRANCH  20  21
ENDBRANCH  19  20
ENDBRANCH  18  19
ENDBRANCH  17  18
ENDBRANCH  16  17
ENDBRANCH  15  16
ENDBRANCH  14  15
ENDBRANCH   1  14
TORSDOF 11
ENDMDL
MODEL 2
REMARK VINA RESULT:      -4.7      4.763      7.516
REMARK  11 active torsions:
REMARK  status: ('A' for Active; 'I' for Inactive)
REMARK    1  A    between atoms: C3_3  and  C2_2 
REMARK    2  A    between atoms: C4_4  and  C3_3 
REMARK    3  A    between atoms: C5_5  and  C4_4 
REMARK    4  A    between atoms: C6_6  and  C5_5 
REMARK    5  A    between atoms: C7_7  and  C6_6 
REMARK    6  A    between atoms: C8_8  and  C7_7 
REMARK    7  A    between atoms: C9_9  and  C8_8 
REMARK    8  A    between atoms: C10_10  and  C9_9 
REMARK    9  A    between atoms: C11_12  and  C10_10 
REMARK   10  A    between atoms: C11_12  and  C12_13 
REMARK       I    between atoms: C12_13  and  N1_15 
REMARK   11  A    between atoms: C13_16  and  N1_15 
ROOT
ATOM      1  C10 OHN d          44.815   1.320   7.799  0.00  0.00     0.135 C 
ATOM      2  O1  OHN d          44.281   1.193   6.710  0.00  0.00    -0.297 OA
ENDROOT
BRANCH   1   3
ATOM      3  C11 OHN d          44.398   0.500   8.975  0.00  0.00     0.181 C 
BRANCH   3   4
ATOM      4  C12 OHN d          42.903   0.554   9.149  0.00  0.00     0.225 C 
ATOM      5  N1  OHN d          42.122  -0.009   8.236  0.00  0.00    -0.347 N 
ATOM      6  H19 OHN d          42.501  -0.454   7.413  0.00  0.00     0.163 HD
ATOM      7  O2  OHN d          42.469   1.120  10.125  0.00  0.00    -0.273 OA
BRANCH   5   8
ATOM      8  C13 OHN d          40.711   0.049   8.485  0.00  0.00     0.186 C 
ATOM      9  C14 OHN d          39.991   1.225   7.827  0.00  0.00     0.062 C 
ATOM     10  C15 OHN d          38.642   0.706   7.303  0.00  0.00     0.181 C 
ATOM     11  O4  OHN d          38.793  -0.699   7.212  0.00  0.00    -0.320 OA
ATOM     12  C16 OHN d          39.981  -1.094   7.893  0.00  0.00     0.281 C 
ATOM     13  O3  OHN d          40.331  -2.240   7.982  0.00  0.00    -0.263 OA
ENDBRANCH   5   8
ENDBRANCH   3   4
ENDBRANCH   1   3
BRANCH   1  14
ATOM     14  C9  OHN d          45.875   2.354   8.006  0.00  0.00     0.079 C 
BRANCH  14  15
ATOM     15  C8  OHN d          46.674   2.611   6.752  0.00  0.00     0.007 C 
BRANCH  15  16
ATOM     16  C7  OHN d          48.050   2.034   7.046  0.00  0.00     0.000 C 
BRANCH  16  17
ATOM     17  C6  OHN d          49.046   3.164   7.329  0.00  0.00     0.000 C 
BRANCH  17  18
ATOM     18  C5  OHN d          49.608   2.974   8.729  0.00  0.00     0.000 C 
BRANCH  18  19
ATOM     19  C4  OHN d          49.300   1.576   9.218  0.00  0.00     0.000 C 
BRANCH  19  20
ATOM     20  C3  OHN d          48.780   1.629  10.641  0.00  0.00    -0.000 C 
BRANCH  20  21
ATOM     21  C2  OHN d          47.684   0.603  10.817  0.00  0.00    -0.005 C 
ATOM     22  C1  OHN d          47.838  -0.409   9.715  0.00  0.00     0.005 C 
ENDBRANCH  20  21
ENDBRANCH  19  20
ENDBRANCH  18  19
ENDBRANCH  17  18
ENDBRANCH  16  17
ENDBRANCH  15  16
ENDBRANCH  14  15
ENDBRANCH   1  14
TORSDOF 11
ENDMDL
MODEL 3
REMARK VINA RESULT:      -4.7      4.218      6.706
REMARK  11 active torsions:
REMARK  status: ('A' for Active; 'I' for Inactive)
REMARK    1  A    between atoms: C3_3  and  C2_2 
REMARK    2  A    between atoms: C4_4  and  C3_3 
REMARK    3  A    between atoms: C5_5  and  C4_4 
REMARK    4  A    between atoms: C6_6  and  C5_5 
REMARK    5  A    between atoms: C7_7  and  C6_6 
REMARK    6  A    between atoms: C8_8  and  C7_7 
REMARK    7  A    between atoms: C9_9  and  C8_8 
REMARK    8  A    between atoms: C10_10  and  C9_9 
REMARK    9  A    between atoms: C11_12  and  C10_10 
REMARK   10  A    between atoms: C11_12  and  C12_13 
REMARK       I    between atoms: C12_13  and  N1_15 
REMARK   11  A    between atoms: C13_16  and  N1_15 
ROOT
ATOM      1  C10 OHN d          43.985   1.802   7.391  0.00  0.00     0.135 C 
ATOM      2  O1  OHN d          44.340   0.953   6.591  0.00  0.00    -0.297 OA
ENDROOT
BRANCH   1   3
ATOM      3  C11 OHN d          42.620   2.404   7.339  0.00  0.00     0.181 C 
BRANCH   3   4
ATOM      4  C12 OHN d          41.625   1.511   8.032  0.00  0.00     0.225 C 
ATOM      5  N1  OHN d          41.801   0.197   8.001  0.00  0.00    -0.347 N 
ATOM      6  H19 OHN d          42.572  -0.226   7.505  0.00  0.00     0.163 HD
ATOM      7  O2  OHN d          40.691   2.035   8.592  0.00  0.00    -0.273 OA
BRANCH   5   8
ATOM      8  C13 OHN d          40.835  -0.590   8.712  0.00  0.00     0.186 C 
ATOM      9  C14 OHN d          39.817  -1.308   7.829  0.00  0.00     0.062 C 
ATOM     10  C15 OHN d          39.591  -2.706   8.429  0.00  0.00     0.181 C 
ATOM     11  O4  OHN d          40.719  -2.947   9.249  0.00  0.00    -0.320 OA
ATOM     12  C16 OHN d          41.446  -1.734   9.425  0.00  0.00     0.281 C 
ATOM     13  O3  OHN d          42.439  -1.661  10.098  0.00  0.00    -0.263 OA
ENDBRANCH   5   8
ENDBRANCH   3   4
ENDBRANCH   1   3
BRANCH   1  14
ATOM     14  C9  OHN d          44.938   2.314   8.423  0.00  0.00     0.079 C 
BRANCH  14  15
ATOM     15  C8  OHN d          44.605   1.811   9.806  0.00  0.00     0.007 C 
BRANCH  15  16
ATOM     16  C7  OHN d          45.367   0.501   9.934  0.00  0.00     0.000 C 
BRANCH  16  17
ATOM     17  C6  OHN d          46.785   0.764  10.452  0.00  0.00     0.000 C 
BRANCH  17  18
ATOM     18  C5  OHN d          47.736  -0.211   9.775  0.00  0.00     0.000 C 
BRANCH  18  19
ATOM     19  C4  OHN d          48.343   0.435   8.550  0.00  0.00     0.000 C 
BRANCH  19  20
ATOM     20  C3  OHN d          48.838   1.827   8.891  0.00  0.00    -0.000 C 
BRANCH  20  21
ATOM     21  C2  OHN d          48.521   2.769   7.752  0.00  0.00    -0.005 C 
ATOM     22  C1  OHN d          48.029   1.932   6.603  0.00  0.00     0.005 C 
ENDBRANCH  20  21
ENDBRANCH  19  20
ENDBRANCH  18  19
ENDBRANCH  17  18
ENDBRANCH  16  17
ENDBRANCH  15  16
ENDBRANCH  14  15
ENDBRANCH   1  14
TORSDOF 11
ENDMDL
MODEL 4
REMARK VINA RESULT:      -4.6      4.582      7.430
REMARK  11 active torsions:
REMARK  status: ('A' for Active; 'I' for Inactive)
REMARK    1  A    between atoms: C3_3  and  C2_2 
REMARK    2  A    between atoms: C4_4  and  C3_3 
REMARK    3  A    between atoms: C5_5  and  C4_4 
REMARK    4  A    between atoms: C6_6  and  C5_5 
REMARK    5  A    between atoms: C7_7  and  C6_6 
REMARK    6  A    between atoms: C8_8  and  C7_7 
REMARK    7  A    between atoms: C9_9  and  C8_8 
REMARK    8  A    between atoms: C10_10  and  C9_9 
REMARK    9  A    between atoms: C11_12  and  C10_10 
REMARK   10  A    between atoms: C11_12  and  C12_13 
REMARK       I    between atoms: C12_13  and  N1_15 
REMARK   11  A    between atoms: C13_16  and  N1_15 
ROOT
ATOM      1  C10 OHN d          44.806   1.486   7.628  0.00  0.00     0.135 C 
ATOM      2  O1  OHN d          44.249   1.373   6.551  0.00  0.00    -0.297 OA
ENDROOT
BRANCH   1   3
ATOM      3  C11 OHN d          44.470   0.599   8.781  0.00  0.00     0.181 C 
BRANCH   3   4
ATOM      4  C12 OHN d          42.988   0.628   9.051  0.00  0.00     0.225 C 
ATOM      5  N1  OHN d          42.148   0.236   8.102  0.00  0.00    -0.347 N 
ATOM      6  H19 OHN d          42.472  -0.060   7.192  0.00  0.00     0.163 HD
ATOM      7  O2  OHN d          42.620   1.016  10.134  0.00  0.00    -0.273 OA
BRANCH   5   8
ATOM      8  C13 OHN d          40.755   0.255   8.441  0.00  0.00     0.186 C 
ATOM      9  C14 OHN d          39.955   1.388   7.802  0.00  0.00     0.062 C 
ATOM     10  C15 OHN d          38.592   0.811   7.381  0.00  0.00     0.181 C 
ATOM     11  O4  OHN d          38.785  -0.591   7.317  0.00  0.00    -0.320 OA
ATOM     12  C16 OHN d          40.027  -0.928   7.928  0.00  0.00     0.281 C 
ATOM     13  O3  OHN d          40.421  -2.059   8.024  0.00  0.00    -0.263 OA
ENDBRANCH   5   8
ENDBRANCH   3   4
ENDBRANCH   1   3
BRANCH   1  14
ATOM     14  C9  OHN d          45.813   2.569   7.849  0.00  0.00     0.079 C 
BRANCH  14  15
ATOM     15  C8  OHN d          46.816   2.655   6.724  0.00  0.00     0.007 C 
BRANCH  15  16
ATOM     16  C7  OHN d          47.955   1.744   7.152  0.00  0.00     0.000 C 
BRANCH  16  17
ATOM     17  C6  OHN d          48.862   2.469   8.152  0.00  0.00     0.000 C 
BRANCH  17  18
ATOM     18  C5  OHN d          49.150   1.530   9.313  0.00  0.00     0.000 C 
BRANCH  18  19
ATOM     19  C4  OHN d          48.371   0.245   9.136  0.00  0.00     0.000 C 
BRANCH  19  20
ATOM     20  C3  OHN d          47.634  -0.094  10.418  0.00  0.00    -0.000 C 
BRANCH  20  21
ATOM     21  C2  OHN d          47.716   1.076  11.372  0.00  0.00    -0.005 C 
ATOM     22  C1  OHN d          46.317   1.370  11.838  0.00  0.00     0.005 C 
ENDBRANCH  20  21
ENDBRANCH  19  20
ENDBRANCH  18  19
ENDBRANCH  17  18
ENDBRANCH  16  17
ENDBRANCH  15  16
ENDBRANCH  14  15
ENDBRANCH   1  14
TORSDOF 11
ENDMDL
MODEL 5
REMARK VINA RESULT:      -4.6      0.738      1.821
REMARK  11 active torsions:
REMARK  status: ('A' for Active; 'I' for Inactive)
REMARK    1  A    between atoms: C3_3  and  C2_2 
REMARK    2  A    between atoms: C4_4  and  C3_3 
REMARK    3  A    between atoms: C5_5  and  C4_4 
REMARK    4  A    between atoms: C6_6  and  C5_5 
REMARK    5  A    between atoms: C7_7  and  C6_6 
REMARK    6  A    between atoms: C8_8  and  C7_7 
REMARK    7  A    between atoms: C9_9  and  C8_8 
REMARK    8  A    between atoms: C10_10  and  C9_9 
REMARK    9  A    between atoms: C11_12  and  C10_10 
REMARK   10  A    between atoms: C11_12  and  C12_13 
REMARK       I    between atoms: C12_13  and  N1_15 
REMARK   11  A    between atoms: C13_16  and  N1_15 
ROOT
ATOM      1  C10 OHN d          39.311  -2.394   8.041  0.00  0.00     0.135 C 
ATOM      2  O1  OHN d          38.952  -3.342   8.717  0.00  0.00    -0.297 OA
ENDROOT
BRANCH   1   3
ATOM      3  C11 OHN d          38.643  -2.057   6.749  0.00  0.00     0.181 C 
BRANCH   3   4
ATOM      4  C12 OHN d          37.784  -3.205   6.287  0.00  0.00     0.225 C 
ATOM      5  N1  OHN d          38.363  -4.286   5.781  0.00  0.00    -0.347 N 
ATOM      6  H19 OHN d          39.365  -4.354   5.674  0.00  0.00     0.163 HD
ATOM      7  O2  OHN d          36.586  -3.090   6.392  0.00  0.00    -0.273 OA
BRANCH   5   8
ATOM      8  C13 OHN d          37.486  -5.354   5.395  0.00  0.00     0.186 C 
ATOM      9  C14 OHN d          37.764  -5.945   4.015  0.00  0.00     0.062 C 
ATOM     10  C15 OHN d          37.582  -7.469   4.120  0.00  0.00     0.181 C 
ATOM     11  O4  OHN d          37.694  -7.763   5.501  0.00  0.00    -0.320 OA
ATOM     12  C16 OHN d          37.636  -6.552   6.250  0.00  0.00     0.281 C 
ATOM     13  O3  OHN d          37.689  -6.525   7.450  0.00  0.00    -0.263 OA
ENDBRANCH   5   8
ENDBRANCH   3   4
ENDBRANCH   1   3
BRANCH   1  14
ATOM     14  C9  OHN d          40.482  -1.566   8.461  0.00  0.00     0.079 C 
BRANCH  14  15
ATOM     15  C8  OHN d          40.311  -0.997   9.849  0.00  0.00     0.007 C 
BRANCH  15  16
ATOM     16  C7  OHN d          39.234   0.066   9.700  0.00  0.00     0.000 C 
BRANCH  16  17
ATOM     17  C6  OHN d          39.867   1.462   9.709  0.00  0.00     0.000 C 
BRANCH  17  18
ATOM     18  C5  OHN d          39.479   2.177   8.424  0.00  0.00     0.000 C 
BRANCH  18  19
ATOM     19  C4  OHN d          40.624   2.111   7.437  0.00  0.00     0.000 C 
BRANCH  19  20
ATOM     20  C3  OHN d          41.941   2.324   8.158  0.00  0.00    -0.000 C 
BRANCH  20  21
ATOM     21  C2  OHN d          42.978   1.372   7.607  0.00  0.00    -0.005 C 
ATOM     22  C1  OHN d          43.522   0.584   8.766  0.00  0.00     0.005 C 
ENDBRANCH  20  21
ENDBRANCH  19  20
ENDBRANCH  18  19
ENDBRANCH  17  18
ENDBRANCH  16  17
ENDBRANCH  15  16
ENDBRANCH  14  15
ENDBRANCH   1  14
TORSDOF 11
ENDMDL
MODEL 6
REMARK VINA RESULT:      -4.6      2.195      3.914
REMARK  11 active torsions:
REMARK  status: ('A' for Active; 'I' for Inactive)
REMARK    1  A    between atoms: C3_3  and  C2_2 
REMARK    2  A    between atoms: C4_4  and  C3_3 
REMARK    3  A    between atoms: C5_5  and  C4_4 
REMARK    4  A    between atoms: C6_6  and  C5_5 
REMARK    5  A    between atoms: C7_7  and  C6_6 
REMARK    6  A    between atoms: C8_8  and  C7_7 
REMARK    7  A    between atoms: C9_9  and  C8_8 
REMARK    8  A    between atoms: C10_10  and  C9_9 
REMARK    9  A    between atoms: C11_12  and  C10_10 
REMARK   10  A    between atoms: C11_12  and  C12_13 
REMARK       I    between atoms: C12_13  and  N1_15 
REMARK   11  A    between atoms: C13_16  and  N1_15 
ROOT
ATOM      1  C10 OHN d          39.243   1.610   7.473  0.00  0.00     0.135 C 
ATOM      2  O1  OHN d          38.868   1.867   6.343  0.00  0.00    -0.297 OA
ENDROOT
BRANCH   1   3
ATOM      3  C11 OHN d          38.285   1.192   8.540  0.00  0.00     0.181 C 
BRANCH   3   4
ATOM      4  C12 OHN d          38.116  -0.305   8.537  0.00  0.00     0.225 C 
ATOM      5  N1  OHN d          37.804  -0.920   7.403  0.00  0.00    -0.347 N 
ATOM      6  H19 OHN d          37.652  -0.410   6.545  0.00  0.00     0.163 HD
ATOM      7  O2  OHN d          38.269  -0.891   9.582  0.00  0.00    -0.273 OA
BRANCH   5   8
ATOM      8  C13 OHN d          37.694  -2.348   7.466  0.00  0.00     0.186 C 
ATOM      9  C14 OHN d          36.508  -2.935   6.705  0.00  0.00     0.062 C 
ATOM     10  C15 OHN d          36.991  -4.224   6.018  0.00  0.00     0.181 C 
ATOM     11  O4  OHN d          38.402  -4.112   5.968  0.00  0.00    -0.320 OA
ATOM     12  C16 OHN d          38.823  -3.036   6.802  0.00  0.00     0.281 C 
ATOM     13  O3  OHN d          39.978  -2.742   6.952  0.00  0.00    -0.263 OA
ENDBRANCH   5   8
ENDBRANCH   3   4
ENDBRANCH   1   3
BRANCH   1  14
ATOM     14  C9  OHN d          40.682   1.766   7.846  0.00  0.00     0.079 C 
BRANCH  14  15
ATOM     15  C8  OHN d          40.855   2.255   9.264  0.00  0.00     0.007 C 
BRANCH  15  16
ATOM     16  C7  OHN d          41.490   1.086  10.001  0.00  0.00     0.000 C 
BRANCH  16  17
ATOM     17  C6  OHN d          42.086   0.092   8.998  0.00  0.00     0.000 C 
BRANCH  17  18
ATOM     18  C5  OHN d          43.517  -0.212   9.412  0.00  0.00     0.000 C 
BRANCH  18  19
ATOM     19  C4  OHN d          44.434   0.889   8.927  0.00  0.00     0.000 C 
BRANCH  19  20
ATOM     20  C3  OHN d          44.307   1.044   7.424  0.00  0.00    -0.000 C 
BRANCH  20  21
ATOM     21  C2  OHN d          44.187   2.510   7.076  0.00  0.00    -0.005 C 
ATOM     22  C1  OHN d          44.335   3.287   8.355  0.00  0.00     0.005 C 
ENDBRANCH  20  21
ENDBRANCH  19  20
ENDBRANCH  18  19
ENDBRANCH  17  18
ENDBRANCH  16  17
ENDBRANCH  15  16
ENDBRANCH  14  15
ENDBRANCH   1  14
TORSDOF 11
ENDMDL
MODEL 7
REMARK VINA RESULT:      -4.6      3.955      6.424
REMARK  11 active torsions:
REMARK  status: ('A' for Active; 'I' for Inactive)
REMARK    1  A    between atoms: C3_3  and  C2_2 
REMARK    2  A    between atoms: C4_4  and  C3_3 
REMARK    3  A    between atoms: C5_5  and  C4_4 
REMARK    4  A    between atoms: C6_6  and  C5_5 
REMARK    5  A    between atoms: C7_7  and  C6_6 
REMARK    6  A    between atoms: C8_8  and  C7_7 
REMARK    7  A    between atoms: C9_9  and  C8_8 
REMARK    8  A    between atoms: C10_10  and  C9_9 
REMARK    9  A    between atoms: C11_12  and  C10_10 
REMARK   10  A    between atoms: C11_12  and  C12_13 
REMARK       I    between atoms: C12_13  and  N1_15 
REMARK   11  A    between atoms: C13_16  and  N1_15 
ROOT
ATOM      1  C10 OHN d          43.293   1.663   7.544  0.00  0.00     0.135 C 
ATOM      2  O1  OHN d          42.252   2.237   7.274  0.00  0.00    -0.297 OA
ENDROOT
BRANCH   1   3
ATOM      3  C11 OHN d          43.369   0.656   8.643  0.00  0.00     0.181 C 
BRANCH   3   4
ATOM      4  C12 OHN d          41.992   0.157   8.995  0.00  0.00     0.225 C 
ATOM      5  N1  OHN d          41.344  -0.619   8.135  0.00  0.00    -0.347 N 
ATOM      6  H19 OHN d          41.739  -0.867   7.239  0.00  0.00     0.163 HD
ATOM      7  O2  OHN d          41.525   0.492  10.057  0.00  0.00    -0.273 OA
BRANCH   5   8
ATOM      8  C13 OHN d          40.053  -1.087   8.550  0.00  0.00     0.186 C 
ATOM      9  C14 OHN d          38.991  -1.095   7.454  0.00  0.00     0.062 C 
ATOM     10  C15 OHN d          38.159  -2.378   7.627  0.00  0.00     0.181 C 
ATOM     11  O4  OHN d          38.968  -3.245   8.400  0.00  0.00    -0.320 OA
ATOM     12  C16 OHN d          40.064  -2.514   8.943  0.00  0.00     0.281 C 
ATOM     13  O3  OHN d          40.891  -3.013   9.657  0.00  0.00    -0.263 OA
ENDBRANCH   5   8
ENDBRANCH   3   4
ENDBRANCH   1   3
BRANCH   1  14
ATOM     14  C9  OHN d          44.553   1.999   6.814  0.00  0.00     0.079 C 
BRANCH  14  15
ATOM     15  C8  OHN d          45.690   2.320   7.754  0.00  0.00     0.007 C 
BRANCH  15  16
ATOM     16  C7  OHN d          46.851   2.688   6.843  0.00  0.00     0.000 C 
BRANCH  16  17
ATOM     17  C6  OHN d          47.992   1.678   7.010  0.00  0.00     0.000 C 
BRANCH  17  18
ATOM     18  C5  OHN d          48.363   1.607   8.483  0.00  0.00     0.000 C 
BRANCH  18  19
ATOM     19  C4  OHN d          48.426   0.162   8.926  0.00  0.00     0.000 C 
BRANCH  19  20
ATOM     20  C3  OHN d          47.380  -0.098   9.992  0.00  0.00    -0.000 C 
BRANCH  20  21
ATOM     21  C2  OHN d          47.320   1.079  10.939  0.00  0.00    -0.005 C 
ATOM     22  C1  OHN d          45.885   1.241  11.359  0.00  0.00     0.005 C 
ENDBRANCH  20  21
ENDBRANCH  19  20
ENDBRANCH  18  19
ENDBRANCH  17  18
ENDBRANCH  16  17
ENDBRANCH  15  16
ENDBRANCH  14  15
ENDBRANCH   1  14
TORSDOF 11
ENDMDL
MODEL 8
REMARK VINA RESULT:      -4.6      2.928      4.754
REMARK  11 active torsions:
REMARK  status: ('A' for Active; 'I' for Inactive)
REMARK    1  A    between atoms: C3_3  and  C2_2 
REMARK    2  A    between atoms: C4_4  and  C3_3 
REMARK    3  A    between atoms: C5_5  and  C4_4 
REMARK    4  A    between atoms: C6_6  and  C5_5 
REMARK    5  A    between atoms: C7_7  and  C6_6 
REMARK    6  A    between atoms: C8_8  and  C7_7 
REMARK    7  A    between atoms: C9_9  and  C8_8 
REMARK    8  A    between atoms: C10_10  and  C9_9 
REMARK    9  A    between atoms: C11_12  and  C10_10 
REMARK   10  A    between atoms: C11_12  and  C12_13 
REMARK       I    between atoms: C12_13  and  N1_15 
REMARK   11  A    between atoms: C13_16  and  N1_15 
ROOT
ATOM      1  C10 OHN d          39.273   1.687   7.415  0.00  0.00     0.135 C 
ATOM      2  O1  OHN d          38.713   1.690   6.332  0.00  0.00    -0.297 OA
ENDROOT
BRANCH   1   3
ATOM      3  C11 OHN d          38.574   1.242   8.656  0.00  0.00     0.181 C 
BRANCH   3   4
ATOM      4  C12 OHN d          38.346  -0.246   8.627  0.00  0.00     0.225 C 
ATOM      5  N1  OHN d          37.953  -0.820   7.497  0.00  0.00    -0.347 N 
ATOM      6  H19 OHN d          37.778  -0.284   6.660  0.00  0.00     0.163 HD
ATOM      7  O2  OHN d          38.528  -0.865   9.649  0.00  0.00    -0.273 OA
BRANCH   5   8
ATOM      8  C13 OHN d          37.790  -2.245   7.533  0.00  0.00     0.186 C 
ATOM      9  C14 OHN d          36.560  -2.769   6.795  0.00  0.00     0.062 C 
ATOM     10  C15 OHN d          36.973  -4.059   6.066  0.00  0.00     0.181 C 
ATOM     11  O4  OHN d          38.385  -3.999   5.975  0.00  0.00    -0.320 OA
ATOM     12  C16 OHN d          38.872  -2.960   6.819  0.00  0.00     0.281 C 
ATOM     13  O3  OHN d          40.041  -2.712   6.941  0.00  0.00    -0.263 OA
ENDBRANCH   5   8
ENDBRANCH   3   4
ENDBRANCH   1   3
BRANCH   1  14
ATOM     14  C9  OHN d          40.675   2.190   7.542  0.00  0.00     0.079 C 
BRANCH  14  15
ATOM     15  C8  OHN d          41.317   1.769   8.842  0.00  0.00     0.007 C 
BRANCH  15  16
ATOM     16  C7  OHN d          42.789   2.107   8.672  0.00  0.00     0.000 C 
BRANCH  16  17
ATOM     17  C6  OHN d          43.111   2.330   7.190  0.00  0.00     0.000 C 
BRANCH  17  18
ATOM     18  C5  OHN d          44.308   1.468   6.820  0.00  0.00     0.000 C 
BRANCH  18  19
ATOM     19  C4  OHN d          45.317   1.483   7.948  0.00  0.00     0.000 C 
BRANCH  19  20
ATOM     20  C3  OHN d          46.397   2.508   7.661  0.00  0.00    -0.000 C 
BRANCH  20  21
ATOM     21  C2  OHN d          47.630   1.808   7.137  0.00  0.00    -0.005 C 
ATOM     22  C1  OHN d          48.462   2.840   6.428  0.00  0.00     0.005 C 
ENDBRANCH  20  21
ENDBRANCH  19  20
ENDBRANCH  18  19
ENDBRANCH  17  18
ENDBRANCH  16  17
ENDBRANCH  15  16
ENDBRANCH  14  15
ENDBRANCH   1  14
TORSDOF 11
ENDMDL
MODEL 9
REMARK VINA RESULT:      -4.6      2.154      4.054
REMARK  11 active torsions:
REMARK  status: ('A' for Active; 'I' for Inactive)
REMARK    1  A    between atoms: C3_3  and  C2_2 
REMARK    2  A    between atoms: C4_4  and  C3_3 
REMARK    3  A    between atoms: C5_5  and  C4_4 
REMARK    4  A    between atoms: C6_6  and  C5_5 
REMARK    5  A    between atoms: C7_7  and  C6_6 
REMARK    6  A    between atoms: C8_8  and  C7_7 
REMARK    7  A    between atoms: C9_9  and  C8_8 
REMARK    8  A    between atoms: C10_10  and  C9_9 
REMARK    9  A    between atoms: C11_12  and  C10_10 
REMARK   10  A    between atoms: C11_12  and  C12_13 
REMARK       I    between atoms: C12_13  and  N1_15 
REMARK   11  A    between atoms: C13_16  and  N1_15 
ROOT
ATOM      1  C10 OHN d          39.275   1.724   7.530  0.00  0.00     0.135 C 
ATOM      2  O1  OHN d          38.858   1.723   6.384  0.00  0.00    -0.297 OA
ENDROOT
BRANCH   1   3
ATOM      3  C11 OHN d          38.423   1.281   8.673  0.00  0.00     0.181 C 
BRANCH   3   4
ATOM      4  C12 OHN d          38.242  -0.214   8.645  0.00  0.00     0.225 C 
ATOM      5  N1  OHN d          37.932  -0.809   7.501  0.00  0.00    -0.347 N 
ATOM      6  H19 OHN d          37.790  -0.285   6.649  0.00  0.00     0.163 HD
ATOM      7  O2  OHN d          38.384  -0.818   9.682  0.00  0.00    -0.273 OA
BRANCH   5   8
ATOM      8  C13 OHN d          37.810  -2.237   7.541  0.00  0.00     0.186 C 
ATOM      9  C14 OHN d          36.629  -2.803   6.756  0.00  0.00     0.062 C 
ATOM     10  C15 OHN d          37.110  -4.085   6.056  0.00  0.00     0.181 C 
ATOM     11  O4  OHN d          38.522  -3.984   6.024  0.00  0.00    -0.320 OA
ATOM     12  C16 OHN d          38.942  -2.924   6.879  0.00  0.00     0.281 C 
ATOM     13  O3  OHN d          40.098  -2.641   7.047  0.00  0.00    -0.263 OA
ENDBRANCH   5   8
ENDBRANCH   3   4
ENDBRANCH   1   3
BRANCH   1  14
ATOM     14  C9  OHN d          40.648   2.230   7.834  0.00  0.00     0.079 C 
BRANCH  14  15
ATOM     15  C8  OHN d          40.725   2.892   9.189  0.00  0.00     0.007 C 
BRANCH  15  16
ATOM     16  C7  OHN d          42.176   3.329   9.323  0.00  0.00     0.000 C 
BRANCH  16  17
ATOM     17  C6  OHN d          42.990   2.826   8.126  0.00  0.00     0.000 C 
BRANCH  17  18
ATOM     18  C5  OHN d          44.278   2.206   8.645  0.00  0.00     0.000 C 
BRANCH  18  19
ATOM     19  C4  OHN d          44.258   0.712   8.408  0.00  0.00     0.000 C 
BRANCH  19  20
ATOM     20  C3  OHN d          43.855  -0.009   9.679  0.00  0.00    -0.000 C 
BRANCH  20  21
ATOM     21  C2  OHN d          42.488  -0.629   9.496  0.00  0.00    -0.005 C 
ATOM     22  C1  OHN d          41.699  -0.347  10.745  0.00  0.00     0.005 C 
ENDBRANCH  20  21
ENDBRANCH  19  20
ENDBRANCH  18  19
ENDBRANCH  17  18
ENDBRANCH  16  17
ENDBRANCH  15  16
ENDBRANCH  14  15
ENDBRANCH   1  14
TORSDOF 11
ENDMDL
MODEL 10
REMARK VINA RESULT:      -4.6      4.094      6.538
REMARK  11 active torsions:
REMARK  status: ('A' for Active; 'I' for Inactive)
REMARK    1  A    between atoms: C3_3  and  C2_2 
REMARK    2  A    between atoms: C4_4  and  C3_3 
REMARK    3  A    between atoms: C5_5  and  C4_4 
REMARK    4  A    between atoms: C6_6  and  C5_5 
REMARK    5  A    between atoms: C7_7  and  C6_6 
REMARK    6  A    between atoms: C8_8  and  C7_7 
REMARK    7  A    between atoms: C9_9  and  C8_8 
REMARK    8  A    between atoms: C10_10  and  C9_9 
REMARK    9  A    between atoms: C11_12  and  C10_10 
REMARK   10  A    between atoms: C11_12  and  C12_13 
REMARK       I    between atoms: C12_13  and  N1_15 
REMARK   11  A    between atoms: C13_16  and  N1_15 
ROOT
ATOM      1  C10 OHN d          43.823   1.197   7.941  0.00  0.00     0.135 C 
ATOM      2  O1  OHN d          43.864   0.340   8.806  0.00  0.00    -0.297 OA
ENDROOT
BRANCH   1   3
ATOM      3  C11 OHN d          42.559   1.922   7.618  0.00  0.00     0.181 C 
BRANCH   3   4
ATOM      4  C12 OHN d          41.367   1.153   8.126  0.00  0.00     0.225 C 
ATOM      5  N1  OHN d          41.243  -0.130   7.812  0.00  0.00    -0.347 N 
ATOM      6  H19 OHN d          41.912  -0.602   7.222  0.00  0.00     0.163 HD
ATOM      7  O2  OHN d          40.560   1.745   8.802  0.00  0.00    -0.273 OA
BRANCH   5   8
ATOM      8  C13 OHN d          40.103  -0.809   8.358  0.00  0.00     0.186 C 
ATOM      9  C14 OHN d          38.902  -0.903   7.421  0.00  0.00     0.062 C 
ATOM     10  C15 OHN d          38.288  -2.302   7.595  0.00  0.00     0.181 C 
ATOM     11  O4  OHN d          39.313  -3.089   8.173  0.00  0.00    -0.320 OA
ATOM     12  C16 OHN d          40.366  -2.242   8.622  0.00  0.00     0.281 C 
ATOM     13  O3  OHN d          41.351  -2.659   9.170  0.00  0.00    -0.263 OA
ENDBRANCH   5   8
ENDBRANCH   3   4
ENDBRANCH   1   3
BRANCH   1  14
ATOM     14  C9  OHN d          45.037   1.509   7.126  0.00  0.00     0.079 C 
BRANCH  14  15
ATOM     15  C8  OHN d          45.782   2.713   7.651  0.00  0.00     0.007 C 
BRANCH  15  16
ATOM     16  C7  OHN d          47.058   2.766   6.825  0.00  0.00     0.000 C 
BRANCH  16  17
ATOM     17  C6  OHN d          47.979   1.600   7.202  0.00  0.00     0.000 C 
BRANCH  17  18
ATOM     18  C5  OHN d          48.499   1.833   8.612  0.00  0.00     0.000 C 
BRANCH  18  19
ATOM     19  C4  OHN d          48.687   0.505   9.313  0.00  0.00     0.000 C 
BRANCH  19  20
ATOM     20  C3  OHN d          47.341  -0.055   9.730  0.00  0.00    -0.000 C 
BRANCH  20  21
ATOM     21  C2  OHN d          46.725   0.839  10.781  0.00  0.00    -0.005 C 
ATOM     22  C1  OHN d          47.464   0.591  12.067  0.00  0.00     0.005 C 
ENDBRANCH  20  21
ENDBRANCH  19  20
ENDBRANCH  18  19
ENDBRANCH  17  18
ENDBRANCH  16  17
ENDBRANCH  15  16
ENDBRANCH  14  15
ENDBRANCH   1  14
TORSDOF 11
ENDMDL
MODEL 11
REMARK VINA RESULT:      -4.5      5.583      9.127
REMARK  11 active torsions:
REMARK  status: ('A' for Active; 'I' for Inactive)
REMARK    1  A    between atoms: C3_3  and  C2_2 
REMARK    2  A    between atoms: C4_4  and  C3_3 
REMARK    3  A    between atoms: C5_5  and  C4_4 
REMARK    4  A    between atoms: C6_6  and  C5_5 
REMARK    5  A    between atoms: C7_7  and  C6_6 
REMARK    6  A    between atoms: C8_8  and  C7_7 
REMARK    7  A    between atoms: C9_9  and  C8_8 
REMARK    8  A    between atoms: C10_10  and  C9_9 
REMARK    9  A    between atoms: C11_12  and  C10_10 
REMARK   10  A    between atoms: C11_12  and  C12_13 
REMARK       I    between atoms: C12_13  and  N1_15 
REMARK   11  A    between atoms: C13_16  and  N1_15 
ROOT
ATOM      1  C10 OHN d          42.441   2.272   7.864  0.00  0.00     0.135 C 
ATOM      2  O1  OHN d          42.925   3.192   8.501  0.00  0.00    -0.297 OA
ENDROOT
BRANCH   1   3
ATOM      3  C11 OHN d          43.278   1.147   7.355  0.00  0.00     0.181 C 
BRANCH   3   4
ATOM      4  C12 OHN d          44.697   1.284   7.843  0.00  0.00     0.225 C 
ATOM      5  N1  OHN d          45.531   2.088   7.196  0.00  0.00    -0.347 N 
ATOM      6  H19 OHN d          45.249   2.594   6.369  0.00  0.00     0.163 HD
ATOM      7  O2  OHN d          45.023   0.644   8.815  0.00  0.00    -0.273 OA
BRANCH   5   8
ATOM      8  C13 OHN d          46.854   2.197   7.738  0.00  0.00     0.186 C 
ATOM      9  C14 OHN d          47.978   2.133   6.706  0.00  0.00     0.062 C 
ATOM     10  C15 OHN d          49.042   3.164   7.117  0.00  0.00     0.181 C 
ATOM     11  O4  OHN d          48.374   4.065   7.981  0.00  0.00    -0.320 OA
ATOM     12  C16 OHN d          47.111   3.520   8.351  0.00  0.00     0.281 C 
ATOM     13  O3  OHN d          46.353   4.079   9.097  0.00  0.00    -0.263 OA
ENDBRANCH   5   8
ENDBRANCH   3   4
ENDBRANCH   1   3
BRANCH   1  14
ATOM     14  C9  OHN d          40.987   2.276   7.518  0.00  0.00     0.079 C 
BRANCH  14  15
ATOM     15  C8  OHN d          40.123   2.682   8.687  0.00  0.00     0.007 C 
BRANCH  15  16
ATOM     16  C7  OHN d          39.033   1.623   8.749  0.00  0.00     0.000 C 
BRANCH  16  17
ATOM     17  C6  OHN d          39.038   0.787   7.464  0.00  0.00     0.000 C 
BRANCH  17  18
ATOM     18  C5  OHN d          38.894  -0.679   7.842  0.00  0.00     0.000 C 
BRANCH  18  19
ATOM     19  C4  OHN d          40.258  -1.332   7.886  0.00  0.00     0.000 C 
BRANCH  19  20
ATOM     20  C3  OHN d          40.550  -1.824   9.290  0.00  0.00    -0.000 C 
BRANCH  20  21
ATOM     21  C2  OHN d          41.951  -1.416   9.687  0.00  0.00    -0.005 C 
ATOM     22  C1  OHN d          41.830  -0.205  10.570  0.00  0.00     0.005 C 
ENDBRANCH  20  21
ENDBRANCH  19  20
ENDBRANCH  18  19
ENDBRANCH  17  18
ENDBRANCH  16  17
ENDBRANCH  15  16
ENDBRANCH  14  15
ENDBRANCH   1  14
TORSDOF 11
ENDMDL
MODEL 12
REMARK VINA RESULT:      -4.5      2.897      8.528
REMARK  11 active torsions:
REMARK  status: ('A' for Active; 'I' for Inactive)
REMARK    1  A    between atoms: C3_3  and  C2_2 
REMARK    2  A    between atoms: C4_4  and  C3_3 
REMARK    3  A    between atoms: C5_5  and  C4_4 
REMARK    4  A    between atoms: C6_6  and  C5_5 
REMARK    5  A    between atoms: C7_7  and  C6_6 
REMARK    6  A    between atoms: C8_8  and  C7_7 
REMARK    7  A    between atoms: C9_9  and  C8_8 
REMARK    8  A    between atoms: C10_10  and  C9_9 
REMARK    9  A    between atoms: C11_12  and  C10_10 
REMARK   10  A    between atoms: C11_12  and  C12_13 
REMARK       I    between atoms: C12_13  and  N1_15 
REMARK   11  A    between atoms: C13_16  and  N1_15 
ROOT
ATOM      1  C10 OHN d          39.360  -2.017   7.532  0.00  0.00     0.135 C 
ATOM      2  O1  OHN d          38.865  -0.917   7.355  0.00  0.00    -0.297 OA
ENDROOT
BRANCH   1   3
ATOM      3  C11 OHN d          40.260  -2.293   8.690  0.00  0.00     0.181 C 
BRANCH   3   4
ATOM      4  C12 OHN d          41.046  -1.059   9.050  0.00  0.00     0.225 C 
ATOM      5  N1  OHN d          41.659  -0.379   8.090  0.00  0.00    -0.347 N 
ATOM      6  H19 OHN d          41.634  -0.677   7.126  0.00  0.00     0.163 HD
ATOM      7  O2  OHN d          41.091  -0.739  10.214  0.00  0.00    -0.273 OA
BRANCH   5   8
ATOM      8  C13 OHN d          42.360   0.804   8.500  0.00  0.00     0.186 C 
ATOM      9  C14 OHN d          43.879   0.726   8.377  0.00  0.00     0.062 C 
ATOM     10  C15 OHN d          44.372   2.088   7.860  0.00  0.00     0.181 C 
ATOM     11  O4  OHN d          43.237   2.695   7.270  0.00  0.00    -0.320 OA
ATOM     12  C16 OHN d          42.067   1.968   7.634  0.00  0.00     0.281 C 
ATOM     13  O3  OHN d          40.964   2.288   7.279  0.00  0.00    -0.263 OA
ENDBRANCH   5   8
ENDBRANCH   3   4
ENDBRANCH   1   3
BRANCH   1  14
ATOM     14  C9  OHN d          39.125  -3.119   6.550  0.00  0.00     0.079 C 
BRANCH  14  15
ATOM     15  C8  OHN d          37.665  -3.265   6.193  0.00  0.00     0.007 C 
BRANCH  15  16
ATOM     16  C7  OHN d          37.389  -4.756   6.303  0.00  0.00     0.000 C 
BRANCH  16  17
ATOM     17  C6  OHN d          36.883  -5.298   4.961  0.00  0.00     0.000 C 
BRANCH  17  18
ATOM     18  C5  OHN d          37.786  -6.445   4.533  0.00  0.00     0.000 C 
BRANCH  18  19
ATOM     19  C4  OHN d          38.132  -7.299   5.733  0.00  0.00     0.000 C 
BRANCH  19  20
ATOM     20  C3  OHN d          38.935  -8.508   5.293  0.00  0.00    -0.000 C 
BRANCH  20  21
ATOM     21  C2  OHN d          39.362  -8.334   3.854  0.00  0.00    -0.005 C 
ATOM     22  C1  OHN d          39.034  -9.612   3.133  0.00  0.00     0.005 C 
ENDBRANCH  20  21
ENDBRANCH  19  20
ENDBRANCH  18  19
ENDBRANCH  17  18
ENDBRANCH  16  17
ENDBRANCH  15  16
ENDBRANCH  14  15
ENDBRANCH   1  14
TORSDOF 11
ENDMDL
MODEL 13
REMARK VINA RESULT:      -4.5      5.752      9.524
REMARK  11 active torsions:
REMARK  status: ('A' for Active; 'I' for Inactive)
REMARK    1  A    between atoms: C3_3  and  C2_2 
REMARK    2  A    between atoms: C4_4  and  C3_3 
REMARK    3  A    between atoms: C5_5  and  C4_4 
REMARK    4  A    between atoms: C6_6  and  C5_5 
REMARK    5  A    between atoms: C7_7  and  C6_6 
REMARK    6  A    between atoms: C8_8  and  C7_7 
REMARK    7  A    between atoms: C9_9  and  C8_8 
REMARK    8  A    between atoms: C10_10  and  C9_9 
REMARK    9  A    between atoms: C11_12  and  C10_10 
REMARK   10  A    between atoms: C11_12  and  C12_13 
REMARK       I    between atoms: C12_13  and  N1_15 
REMARK   11  A    between atoms: C13_16  and  N1_15 
ROOT
ATOM      1  C10 OHN d          43.607   1.358   7.471  0.00  0.00     0.135 C 
ATOM      2  O1  OHN d          44.092   0.957   6.427  0.00  0.00    -0.297 OA
ENDROOT
BRANCH   1   3
ATOM      3  C11 OHN d          44.210   1.019   8.794  0.00  0.00     0.181 C 
BRANCH   3   4
ATOM      4  C12 OHN d          45.705   1.205   8.754  0.00  0.00     0.225 C 
ATOM      5  N1  OHN d          46.215   2.192   8.029  0.00  0.00    -0.347 N 
ATOM      6  H19 OHN d          45.632   2.810   7.483  0.00  0.00     0.163 HD
ATOM      7  O2  OHN d          46.386   0.435   9.388  0.00  0.00    -0.273 OA
BRANCH   5   8
ATOM      8  C13 OHN d          47.642   2.333   8.066  0.00  0.00     0.186 C 
ATOM      9  C14 OHN d          48.301   2.546   6.705  0.00  0.00     0.062 C 
ATOM     10  C15 OHN d          49.416   3.590   6.890  0.00  0.00     0.181 C 
ATOM     11  O4  OHN d          49.096   4.269   8.090  0.00  0.00    -0.320 OA
ATOM     12  C16 OHN d          48.076   3.554   8.782  0.00  0.00     0.281 C 
ATOM     13  O3  OHN d          47.637   3.908   9.843  0.00  0.00    -0.263 OA
ENDBRANCH   5   8
ENDBRANCH   3   4
ENDBRANCH   1   3
BRANCH   1  14
ATOM     14  C9  OHN d          42.346   2.160   7.462  0.00  0.00     0.079 C 
BRANCH  14  15
ATOM     15  C8  OHN d          42.051   2.776   8.808  0.00  0.00     0.007 C 
BRANCH  15  16
ATOM     16  C7  OHN d          40.535   2.889   8.856  0.00  0.00     0.000 C 
BRANCH  16  17
ATOM     17  C6  OHN d          39.922   2.293   7.585  0.00  0.00     0.000 C 
BRANCH  17  18
ATOM     18  C5  OHN d          38.801   1.346   7.987  0.00  0.00     0.000 C 
BRANCH  18  19
ATOM     19  C4  OHN d          39.326   0.321   8.968  0.00  0.00     0.000 C 
BRANCH  19  20
ATOM     20  C3  OHN d          40.122  -0.740   8.231  0.00  0.00    -0.000 C 
BRANCH  20  21
ATOM     21  C2  OHN d          41.217  -1.265   9.130  0.00  0.00    -0.005 C 
ATOM     22  C1  OHN d          41.164  -0.474  10.408  0.00  0.00     0.005 C 
ENDBRANCH  20  21
ENDBRANCH  19  20
ENDBRANCH  18  19
ENDBRANCH  17  18
ENDBRANCH  16  17
ENDBRANCH  15  16
ENDBRANCH  14  15
ENDBRANCH   1  14
TORSDOF 11
ENDMDL
MODEL 14
REMARK VINA RESULT:      -4.5      2.962      4.528
REMARK  11 active torsions:
REMARK  status: ('A' for Active; 'I' for Inactive)
REMARK    1  A    between atoms: C3_3  and  C2_2 
REMARK    2  A    between atoms: C4_4  and  C3_3 
REMARK    3  A    between atoms: C5_5  and  C4_4 
REMARK    4  A    between atoms: C6_6  and  C5_5 
REMARK    5  A    between atoms: C7_7  and  C6_6 
REMARK    6  A    between atoms: C8_8  and  C7_7 
REMARK    7  A    between atoms: C9_9  and  C8_8 
REMARK    8  A    between atoms: C10_10  and  C9_9 
REMARK    9  A    between atoms: C11_12  and  C10_10 
REMARK   10  A    between atoms: C11_12  and  C12_13 
REMARK       I    between atoms: C12_13  and  N1_15 
REMARK   11  A    between atoms: C13_16  and  N1_15 
ROOT
ATOM      1  C10 OHN d          42.767   0.070  10.479  0.00  0.00     0.135 C 
ATOM      2  O1  OHN d          41.750   0.396  11.066  0.00  0.00    -0.297 OA
ENDROOT
BRANCH   1   3
ATOM      3  C11 OHN d          42.858  -1.214   9.724  0.00  0.00     0.181 C 
BRANCH   3   4
ATOM      4  C12 OHN d          41.504  -1.868   9.634  0.00  0.00     0.225 C 
ATOM      5  N1  OHN d          40.587  -1.352   8.826  0.00  0.00    -0.347 N 
ATOM      6  H19 OHN d          40.762  -0.518   8.285  0.00  0.00     0.163 HD
ATOM      7  O2  OHN d          41.304  -2.846  10.315  0.00  0.00    -0.273 OA
BRANCH   5   8
ATOM      8  C13 OHN d          39.334  -2.047   8.764  0.00  0.00     0.186 C 
ATOM      9  C14 OHN d          38.117  -1.211   9.153  0.00  0.00     0.062 C 
ATOM     10  C15 OHN d          36.976  -1.578   8.188  0.00  0.00     0.181 C 
ATOM     11  O4  OHN d          37.611  -2.167   7.068  0.00  0.00    -0.320 OA
ATOM     12  C16 OHN d          38.972  -2.447   7.385  0.00  0.00     0.281 C 
ATOM     13  O3  OHN d          39.728  -2.968   6.611  0.00  0.00    -0.263 OA
ENDBRANCH   5   8
ENDBRANCH   3   4
ENDBRANCH   1   3
BRANCH   1  14
ATOM     14  C9  OHN d          43.989   0.930  10.549  0.00  0.00     0.079 C 
BRANCH  14  15
ATOM     15  C8  OHN d          45.056   0.485   9.578  0.00  0.00     0.007 C 
BRANCH  15  16
ATOM     16  C7  OHN d          45.197   1.644   8.603  0.00  0.00     0.000 C 
BRANCH  16  17
ATOM     17  C6  OHN d          44.310   1.410   7.376  0.00  0.00     0.000 C 
BRANCH  17  18
ATOM     18  C5  OHN d          43.210   2.461   7.367  0.00  0.00     0.000 C 
BRANCH  18  19
ATOM     19  C4  OHN d          41.863   1.792   7.529  0.00  0.00     0.000 C 
BRANCH  19  20
ATOM     20  C3  OHN d          40.937   2.683   8.335  0.00  0.00    -0.000 C 
BRANCH  20  21
ATOM     21  C2  OHN d          39.531   2.131   8.280  0.00  0.00    -0.005 C 
ATOM     22  C1  OHN d          39.174   1.962   6.829  0.00  0.00     0.005 C 
ENDBRANCH  20  21
ENDBRANCH  19  20
ENDBRANCH  18  19
ENDBRANCH  17  18
ENDBRANCH  16  17
ENDBRANCH  15  16
ENDBRANCH  14  15
ENDBRANCH   1  14
TORSDOF 11
ENDMDL
MODEL 15
REMARK VINA RESULT:      -4.5      4.187      6.525
REMARK  11 active torsions:
REMARK  status: ('A' for Active; 'I' for Inactive)
REMARK    1  A    between atoms: C3_3  and  C2_2 
REMARK    2  A    between atoms: C4_4  and  C3_3 
REMARK    3  A    between atoms: C5_5  and  C4_4 
REMARK    4  A    between atoms: C6_6  and  C5_5 
REMARK    5  A    between atoms: C7_7  and  C6_6 
REMARK    6  A    between atoms: C8_8  and  C7_7 
REMARK    7  A    between atoms: C9_9  and  C8_8 
REMARK    8  A    between atoms: C10_10  and  C9_9 
REMARK    9  A    between atoms: C11_12  and  C10_10 
REMARK   10  A    between atoms: C11_12  and  C12_13 
REMARK       I    between atoms: C12_13  and  N1_15 
REMARK   11  A    between atoms: C13_16  and  N1_15 
ROOT
ATOM      1  C10 OHN d          44.140   0.806   9.477  0.00  0.00     0.135 C 
ATOM      2  O1  OHN d          43.397   1.009  10.422  0.00  0.00    -0.297 OA
ENDROOT
BRANCH   1   3
ATOM      3  C11 OHN d          43.695   1.029   8.070  0.00  0.00     0.181 C 
BRANCH   3   4
ATOM      4  C12 OHN d          42.205   0.837   7.953  0.00  0.00     0.225 C 
ATOM      5  N1  OHN d          41.672  -0.324   8.311  0.00  0.00    -0.347 N 
ATOM      6  H19 OHN d          42.238  -1.093   8.637  0.00  0.00     0.163 HD
ATOM      7  O2  OHN d          41.549   1.758   7.529  0.00  0.00    -0.273 OA
BRANCH   5   8
ATOM      8  C13 OHN d          40.245  -0.424   8.207  0.00  0.00     0.186 C 
ATOM      9  C14 OHN d          39.738  -1.689   7.517  0.00  0.00     0.062 C 
ATOM     10  C15 OHN d          38.494  -2.167   8.284  0.00  0.00     0.181 C 
ATOM     11  O4  OHN d          38.581  -1.551   9.557  0.00  0.00    -0.320 OA
ATOM     12  C16 OHN d          39.584  -0.540   9.527  0.00  0.00     0.281 C 
ATOM     13  O3  OHN d          39.844   0.148  10.477  0.00  0.00    -0.263 OA
ENDBRANCH   5   8
ENDBRANCH   3   4
ENDBRANCH   1   3
BRANCH   1  14
ATOM     14  C9  OHN d          45.516   0.264   9.699  0.00  0.00     0.079 C 
BRANCH  14  15
ATOM     15  C8  OHN d          46.250   1.002  10.793  0.00  0.00     0.007 C 
BRANCH  15  16
ATOM     16  C7  OHN d          47.703   0.583  10.631  0.00  0.00     0.000 C 
BRANCH  16  17
ATOM     17  C6  OHN d          48.006   0.288   9.158  0.00  0.00     0.000 C 
BRANCH  17  18
ATOM     18  C5  OHN d          48.599   1.539   8.527  0.00  0.00     0.000 C 
BRANCH  18  19
ATOM     19  C4  OHN d          47.993   1.757   7.158  0.00  0.00     0.000 C 
BRANCH  19  20
ATOM     20  C3  OHN d          46.842   2.739   7.253  0.00  0.00    -0.000 C 
BRANCH  20  21
ATOM     21  C2  OHN d          47.109   3.724   8.368  0.00  0.00    -0.005 C 
ATOM     22  C1  OHN d          45.774   4.170   8.899  0.00  0.00     0.005 C 
ENDBRANCH  20  21
ENDBRANCH  19  20
ENDBRANCH  18  19
ENDBRANCH  17  18
ENDBRANCH  16  17
ENDBRANCH  15  16
ENDBRANCH  14  15
ENDBRANCH   1  14
TORSDOF 11
ENDMDL
MODEL 16
REMARK VINA RESULT:      -4.5      2.193      4.213
REMARK  11 active torsions:
REMARK  status: ('A' for Active; 'I' for Inactive)
REMARK    1  A    between atoms: C3_3  and  C2_2 
REMARK    2  A    between atoms: C4_4  and  C3_3 
REMARK    3  A    between atoms: C5_5  and  C4_4 
REMARK    4  A    between atoms: C6_6  and  C5_5 
REMARK    5  A    between atoms: C7_7  and  C6_6 
REMARK    6  A    between atoms: C8_8  and  C7_7 
REMARK    7  A    between atoms: C9_9  and  C8_8 
REMARK    8  A    between atoms: C10_10  and  C9_9 
REMARK    9  A    between atoms: C11_12  and  C10_10 
REMARK   10  A    between atoms: C11_12  and  C12_13 
REMARK       I    between atoms: C12_13  and  N1_15 
REMARK   11  A    between atoms: C13_16  and  N1_15 
ROOT
ATOM      1  C10 OHN d          39.356   1.778   7.392  0.00  0.00     0.135 C 
ATOM      2  O1  OHN d          38.704   1.871   6.366  0.00  0.00    -0.297 OA
ENDROOT
BRANCH   1   3
ATOM      3  C11 OHN d          38.732   1.358   8.681  0.00  0.00     0.181 C 
BRANCH   3   4
ATOM      4  C12 OHN d          38.451  -0.122   8.670  0.00  0.00     0.225 C 
ATOM      5  N1  OHN d          38.112  -0.710   7.530  0.00  0.00    -0.347 N 
ATOM      6  H19 OHN d          38.014  -0.189   6.671  0.00  0.00     0.163 HD
ATOM      7  O2  OHN d          38.542  -0.721   9.716  0.00  0.00    -0.273 OA
BRANCH   5   8
ATOM      8  C13 OHN d          37.894  -2.126   7.587  0.00  0.00     0.186 C 
ATOM      9  C14 OHN d          36.642  -2.613   6.861  0.00  0.00     0.062 C 
ATOM     10  C15 OHN d          37.002  -3.928   6.150  0.00  0.00     0.181 C 
ATOM     11  O4  OHN d          38.414  -3.926   6.054  0.00  0.00    -0.320 OA
ATOM     12  C16 OHN d          38.945  -2.893   6.881  0.00  0.00     0.281 C 
ATOM     13  O3  OHN d          40.123  -2.690   6.994  0.00  0.00    -0.263 OA
ENDBRANCH   5   8
ENDBRANCH   3   4
ENDBRANCH   1   3
BRANCH   1  14
ATOM     14  C9  OHN d          40.805   2.145   7.402  0.00  0.00     0.079 C 
BRANCH  14  15
ATOM     15  C8  OHN d          41.281   2.557   8.774  0.00  0.00     0.007 C 
BRANCH  15  16
ATOM     16  C7  OHN d          42.783   2.323   8.749  0.00  0.00     0.000 C 
BRANCH  16  17
ATOM     17  C6  OHN d          43.091   0.945   8.153  0.00  0.00     0.000 C 
BRANCH  17  18
ATOM     18  C5  OHN d          43.397  -0.016   9.291  0.00  0.00     0.000 C 
BRANCH  18  19
ATOM     19  C4  OHN d          42.187  -0.881   9.569  0.00  0.00     0.000 C 
BRANCH  19  20
ATOM     20  C3  OHN d          41.821  -0.803  11.038  0.00  0.00    -0.000 C 
BRANCH  20  21
ATOM     21  C2  OHN d          41.364  -2.161  11.518  0.00  0.00    -0.005 C 
ATOM     22  C1  OHN d          41.176  -3.025  10.302  0.00  0.00     0.005 C 
ENDBRANCH  20  21
ENDBRANCH  19  20
ENDBRANCH  18  19
ENDBRANCH  17  18
ENDBRANCH  16  17
ENDBRANCH  15  16
ENDBRANCH  14  15
ENDBRANCH   1  14
TORSDOF 11
ENDMDL
MODEL 17
REMARK VINA RESULT:      -4.5      5.053      7.637
REMARK  11 active torsions:
REMARK  status: ('A' for Active; 'I' for Inactive)
REMARK    1  A    between atoms: C3_3  and  C2_2 
REMARK    2  A    between atoms: C4_4  and  C3_3 
REMARK    3  A    between atoms: C5_5  and  C4_4 
REMARK    4  A    between atoms: C6_6  and  C5_5 
REMARK    5  A    between atoms: C7_7  and  C6_6 
REMARK    6  A    between atoms: C8_8  and  C7_7 
REMARK    7  A    between atoms: C9_9  and  C8_8 
REMARK    8  A    between atoms: C10_10  and  C9_9 
REMARK    9  A    between atoms: C11_12  and  C10_10 
REMARK   10  A    between atoms: C11_12  and  C12_13 
REMARK       I    between atoms: C12_13  and  N1_15 
REMARK   11  A    between atoms: C13_16  and  N1_15 
ROOT
ATOM      1  C10 OHN d          44.869   1.213   7.783  0.00  0.00     0.135 C 
ATOM      2  O1  OHN d          44.237   1.162   6.742  0.00  0.00    -0.297 OA
ENDROOT
BRANCH   1   3
ATOM      3  C11 OHN d          44.435   0.464   8.999  0.00  0.00     0.181 C 
BRANCH   3   4
ATOM      4  C12 OHN d          42.941   0.550   9.164  0.00  0.00     0.225 C 
ATOM      5  N1  OHN d          42.154   0.025   8.234  0.00  0.00    -0.347 N 
ATOM      6  H19 OHN d          42.528  -0.412   7.404  0.00  0.00     0.163 HD
ATOM      7  O2  OHN d          42.513   1.106  10.148  0.00  0.00    -0.273 OA
BRANCH   5   8
ATOM      8  C13 OHN d          40.742   0.112   8.474  0.00  0.00     0.186 C 
ATOM      9  C14 OHN d          40.045   1.283   7.785  0.00  0.00     0.062 C 
ATOM     10  C15 OHN d          38.689   0.773   7.267  0.00  0.00     0.181 C 
ATOM     11  O4  OHN d          38.818  -0.636   7.211  0.00  0.00    -0.320 OA
ATOM     12  C16 OHN d          39.996  -1.034   7.907  0.00  0.00     0.281 C 
ATOM     13  O3  OHN d          40.327  -2.182   8.026  0.00  0.00    -0.263 OA
ENDBRANCH   5   8
ENDBRANCH   3   4
ENDBRANCH   1   3
BRANCH   1  14
ATOM     14  C9  OHN d          46.078   2.085   7.892  0.00  0.00     0.079 C 
BRANCH  14  15
ATOM     15  C8  OHN d          47.199   1.415   8.651  0.00  0.00     0.007 C 
BRANCH  15  16
ATOM     16  C7  OHN d          48.433   1.637   7.791  0.00  0.00     0.000 C 
BRANCH  16  17
ATOM     17  C6  OHN d          48.099   2.566   6.618  0.00  0.00     0.000 C 
BRANCH  17  18
ATOM     18  C5  OHN d          49.264   3.521   6.412  0.00  0.00     0.000 C 
BRANCH  18  19
ATOM     19  C4  OHN d          50.018   3.696   7.712  0.00  0.00     0.000 C 
BRANCH  19  20
ATOM     20  C3  OHN d          49.691   5.045   8.323  0.00  0.00    -0.000 C 
BRANCH  20  21
ATOM     21  C2  OHN d          48.950   4.843   9.625  0.00  0.00    -0.005 C 
ATOM     22  C1  OHN d          47.519   5.242   9.391  0.00  0.00     0.005 C 
ENDBRANCH  20  21
ENDBRANCH  19  20
ENDBRANCH  18  19
ENDBRANCH  17  18
ENDBRANCH  16  17
ENDBRANCH  15  16
ENDBRANCH  14  15
ENDBRANCH   1  14
TORSDOF 11
ENDMDL
MODEL 18
REMARK VINA RESULT:      -4.4      2.983      5.076
REMARK  11 active torsions:
REMARK  status: ('A' for Active; 'I' for Inactive)
REMARK    1  A    between atoms: C3_3  and  C2_2 
REMARK    2  A    between atoms: C4_4  and  C3_3 
REMARK    3  A    between atoms: C5_5  and  C4_4 
REMARK    4  A    between atoms: C6_6  and  C5_5 
REMARK    5  A    between atoms: C7_7  and  C6_6 
REMARK    6  A    between atoms: C8_8  and  C7_7 
REMARK    7  A    between atoms: C9_9  and  C8_8 
REMARK    8  A    between atoms: C10_10  and  C9_9 
REMARK    9  A    between atoms: C11_12  and  C10_10 
REMARK   10  A    between atoms: C11_12  and  C12_13 
REMARK       I    between atoms: C12_13  and  N1_15 
REMARK   11  A    between atoms: C13_16  and  N1_15 
ROOT
ATOM      1  C10 OHN d          43.870   0.951   8.558  0.00  0.00     0.135 C 
ATOM      2  O1  OHN d          43.637   0.851   7.366  0.00  0.00    -0.297 OA
ENDROOT
BRANCH   1   3
ATOM      3  C11 OHN d          43.640  -0.184   9.499  0.00  0.00     0.181 C 
BRANCH   3   4
ATOM      4  C12 OHN d          42.166  -0.470   9.627  0.00  0.00     0.225 C 
ATOM      5  N1  OHN d          41.553  -1.155   8.670  0.00  0.00    -0.347 N 
ATOM      6  H19 OHN d          42.041  -1.471   7.845  0.00  0.00     0.163 HD
ATOM      7  O2  OHN d          41.595  -0.054  10.606  0.00  0.00    -0.273 OA
BRANCH   5   8
ATOM      8  C13 OHN d          40.159  -1.421   8.875  0.00  0.00     0.186 C 
ATOM      9  C14 OHN d          39.303  -1.369   7.612  0.00  0.00     0.062 C 
ATOM     10  C15 OHN d          38.283  -2.517   7.697  0.00  0.00     0.181 C 
ATOM     11  O4  OHN d          38.823  -3.426   8.639  0.00  0.00    -0.320 OA
ATOM     12  C16 OHN d          39.904  -2.806   9.330  0.00  0.00     0.281 C 
ATOM     13  O3  OHN d          40.523  -3.358  10.200  0.00  0.00    -0.263 OA
ENDBRANCH   5   8
ENDBRANCH   3   4
ENDBRANCH   1   3
BRANCH   1  14
ATOM     14  C9  OHN d          44.343   2.249   9.129  0.00  0.00     0.079 C 
BRANCH  14  15
ATOM     15  C8  OHN d          43.828   3.437   8.352  0.00  0.00     0.007 C 
BRANCH  15  16
ATOM     16  C7  OHN d          43.753   4.562   9.372  0.00  0.00     0.000 C 
BRANCH  16  17
ATOM     17  C6  OHN d          42.684   4.249  10.424  0.00  0.00     0.000 C 
BRANCH  17  18
ATOM     18  C5  OHN d          41.321   4.269   9.750  0.00  0.00     0.000 C 
BRANCH  18  19
ATOM     19  C4  OHN d          40.501   3.087  10.217  0.00  0.00     0.000 C 
BRANCH  19  20
ATOM     20  C3  OHN d          39.539   2.661   9.125  0.00  0.00    -0.000 C 
BRANCH  20  21
ATOM     21  C2  OHN d          40.313   2.333   7.869  0.00  0.00    -0.005 C 
ATOM     22  C1  OHN d          39.313   2.165   6.759  0.00  0.00     0.005 C 
ENDBRANCH  20  21
ENDBRANCH  19  20
ENDBRANCH  18  19
ENDBRANCH  17  18
ENDBRANCH  16  17
ENDBRANCH  15  16
ENDBRANCH  14  15
ENDBRANCH   1  14
TORSDOF 11
ENDMDL
MODEL 19
REMARK VINA RESULT:      -4.4      3.225      5.352
REMARK  11 active torsions:
REMARK  status: ('A' for Active; 'I' for Inactive)
REMARK    1  A    between atoms: C3_3  and  C2_2 
REMARK    2  A    between atoms: C4_4  and  C3_3 
REMARK    3  A    between atoms: C5_5  and  C4_4 
REMARK    4  A    between atoms: C6_6  and  C5_5 
REMARK    5  A    between atoms: C7_7  and  C6_6 
REMARK    6  A    between atoms: C8_8  and  C7_7 
REMARK    7  A    between atoms: C9_9  and  C8_8 
REMARK    8  A    between atoms: C10_10  and  C9_9 
REMARK    9  A    between atoms: C11_12  and  C10_10 
REMARK   10  A    between atoms: C11_12  and  C12_13 
REMARK       I    between atoms: C12_13  and  N1_15 
REMARK   11  A    between atoms: C13_16  and  N1_15 
ROOT
ATOM      1  C10 OHN d          42.534  -0.695   9.698  0.00  0.00     0.135 C 
ATOM      2  O1  OHN d          42.442  -1.910   9.718  0.00  0.00    -0.297 OA
ENDROOT
BRANCH   1   3
ATOM      3  C11 OHN d          41.326   0.182   9.717  0.00  0.00     0.181 C 
BRANCH   3   4
ATOM      4  C12 OHN d          40.430  -0.132   8.547  0.00  0.00     0.225 C 
ATOM      5  N1  OHN d          39.834  -1.316   8.486  0.00  0.00    -0.347 N 
ATOM      6  H19 OHN d          39.982  -2.024   9.191  0.00  0.00     0.163 HD
ATOM      7  O2  OHN d          40.293   0.716   7.698  0.00  0.00    -0.273 OA
BRANCH   5   8
ATOM      8  C13 OHN d          38.968  -1.533   7.364  0.00  0.00     0.186 C 
ATOM      9  C14 OHN d          39.143  -2.881   6.669  0.00  0.00     0.062 C 
ATOM     10  C15 OHN d          37.742  -3.394   6.295  0.00  0.00     0.181 C 
ATOM     11  O4  OHN d          36.849  -2.679   7.129  0.00  0.00    -0.320 OA
ATOM     12  C16 OHN d          37.541  -1.599   7.751  0.00  0.00     0.281 C 
ATOM     13  O3  OHN d          37.004  -0.823   8.494  0.00  0.00    -0.263 OA
ENDBRANCH   5   8
ENDBRANCH   3   4
ENDBRANCH   1   3
BRANCH   1  14
ATOM     14  C9  OHN d          43.873  -0.039   9.590  0.00  0.00     0.079 C 
BRANCH  14  15
ATOM     15  C8  OHN d          43.796   1.312   8.921  0.00  0.00     0.007 C 
BRANCH  15  16
ATOM     16  C7  OHN d          44.044   1.027   7.448  0.00  0.00     0.000 C 
BRANCH  16  17
ATOM     17  C6  OHN d          44.819   2.186   6.811  0.00  0.00     0.000 C 
BRANCH  17  18
ATOM     18  C5  OHN d          46.035   2.485   7.673  0.00  0.00     0.000 C 
BRANCH  18  19
ATOM     19  C4  OHN d          47.274   1.906   7.026  0.00  0.00     0.000 C 
BRANCH  19  20
ATOM     20  C3  OHN d          48.268   1.489   8.094  0.00  0.00    -0.000 C 
BRANCH  20  21
ATOM     21  C2  OHN d          47.535   1.220   9.388  0.00  0.00    -0.005 C 
ATOM     22  C1  OHN d          47.701  -0.242   9.700  0.00  0.00     0.005 C 
ENDBRANCH  20  21
ENDBRANCH  19  20
ENDBRANCH  18  19
ENDBRANCH  17  18
ENDBRANCH  16  17
ENDBRANCH  15  16
ENDBRANCH  14  15
ENDBRANCH   1  14
TORSDOF 11
ENDMDL
