MODEL 1
REMARK VINA RESULT:      -4.7      0.000      0.000
REMARK  11 active torsions:
REMARK  status: ('A' for Active; 'I' for Inactive)
REMARK    1  A    between atoms: C3_3  and  C2_2 
REMARK    2  A    between atoms: C4_4  and  C3_3 
REMARK    3  A    between atoms: C5_5  and  C4_4 
REMARK    4  A    between atoms: C6_6  and  C5_5 
REMARK    5  A    between atoms: C7_7  and  C6_6 
REMARK    6  A    between atoms: C8_8  and  C7_7 
REMARK    7  A    between atoms: C9_9  and  C8_8 
REMARK    8  A    between atoms: C10_10  and  C9_9 
REMARK    9  A    between atoms: C11_12  and  C10_10 
REMARK   10  A    between atoms: C11_12  and  C12_13 
REMARK       I    between atoms: C12_13  and  N1_15 
REMARK   11  A    between atoms: C13_16  and  N1_15 
ROOT
ATOM      1  C10 OHN d          39.372  -2.354   8.044  0.00  0.00     0.135 C 
ATOM      2  O1  OHN d          39.012  -3.296   8.729  0.00  0.00    -0.297 OA
ENDROOT
BRANCH   1   3
ATOM      3  C11 OHN d          38.691  -2.014   6.761  0.00  0.00     0.181 C 
BRANCH   3   4
ATOM      4  C12 OHN d          37.834  -3.164   6.299  0.00  0.00     0.225 C 
ATOM      5  N1  OHN d          38.417  -4.261   5.835  0.00  0.00    -0.347 N 
ATOM      6  H19 OHN d          39.421  -4.340   5.760  0.00  0.00     0.163 HD
ATOM      7  O2  OHN d          36.635  -3.036   6.367  0.00  0.00    -0.273 OA
BRANCH   5   8
ATOM      8  C13 OHN d          37.542  -5.329   5.447  0.00  0.00     0.186 C 
ATOM      9  C14 OHN d          37.843  -5.942   4.082  0.00  0.00     0.062 C 
ATOM     10  C15 OHN d          37.651  -7.463   4.205  0.00  0.00     0.181 C 
ATOM     11  O4  OHN d          37.734  -7.738   5.591  0.00  0.00    -0.320 OA
ATOM     12  C16 OHN d          37.669  -6.516   6.322  0.00  0.00     0.281 C 
ATOM     13  O3  OHN d          37.699  -6.473   7.523  0.00  0.00    -0.263 OA
ENDBRANCH   5   8
ENDBRANCH   3   4
ENDBRANCH   1   3
BRANCH   1  14
ATOM     14  C9  OHN d          40.559  -1.539   8.445  0.00  0.00     0.079 C 
BRANCH  14  15
ATOM     15  C8  OHN d          40.433  -0.997   9.849  0.00  0.00     0.007 C 
BRANCH  15  16
ATOM     16  C7  OHN d          41.791  -0.383  10.149  0.00  0.00     0.000 C 
BRANCH  16  17
ATOM     17  C6  OHN d          42.439   0.120   8.855  0.00  0.00     0.000 C 
BRANCH  17  18
ATOM     18  C5  OHN d          42.477   1.640   8.893  0.00  0.00     0.000 C 
BRANCH  18  19
ATOM     19  C4  OHN d          41.533   2.201   7.852  0.00  0.00     0.000 C 
BRANCH  19  20
ATOM     20  C3  OHN d          40.326   2.822   8.528  0.00  0.00    -0.000 C 
BRANCH  20  21
ATOM     21  C2  OHN d          39.100   1.987   8.239  0.00  0.00    -0.005 C 
ATOM     22  C1  OHN d          39.059   1.753   6.754  0.00  0.00     0.005 C 
ENDBRANCH  20  21
ENDBRANCH  19  20
ENDBRANCH  18  19
ENDBRANCH  17  18
ENDBRANCH  16  17
ENDBRANCH  15  16
ENDBRANCH  14  15
ENDBRANCH   1  14
TORSDOF 11
ENDMDL
MODEL 2
REMARK VINA RESULT:      -4.7      4.331      6.700
REMARK  11 active torsions:
REMARK  status: ('A' for Active; 'I' for Inactive)
REMARK    1  A    between atoms: C3_3  and  C2_2 
REMARK    2  A    between atoms: C4_4  and  C3_3 
REMARK    3  A    between atoms: C5_5  and  C4_4 
REMARK    4  A    between atoms: C6_6  and  C5_5 
REMARK    5  A    between atoms: C7_7  and  C6_6 
REMARK    6  A    between atoms: C8_8  and  C7_7 
REMARK    7  A    between atoms: C9_9  and  C8_8 
REMARK    8  A    between atoms: C10_10  and  C9_9 
REMARK    9  A    between atoms: C11_12  and  C10_10 
REMARK   10  A    between atoms: C11_12  and  C12_13 
REMARK       I    between atoms: C12_13  and  N1_15 
REMARK   11  A    between atoms: C13_16  and  N1_15 
ROOT
ATOM      1  C10 OHN d          43.991   1.664   7.502  0.00  0.00     0.135 C 
ATOM      2  O1  OHN d          44.431   0.983   6.592  0.00  0.00    -0.297 OA
ENDROOT
BRANCH   1   3
ATOM      3  C11 OHN d          42.643   2.300   7.422  0.00  0.00     0.181 C 
BRANCH   3   4
ATOM      4  C12 OHN d          41.610   1.429   8.088  0.00  0.00     0.225 C 
ATOM      5  N1  OHN d          41.755   0.111   8.054  0.00  0.00    -0.347 N 
ATOM      6  H19 OHN d          42.526  -0.329   7.573  0.00  0.00     0.163 HD
ATOM      7  O2  OHN d          40.678   1.973   8.630  0.00  0.00    -0.273 OA
BRANCH   5   8
ATOM      8  C13 OHN d          40.754  -0.655   8.739  0.00  0.00     0.186 C 
ATOM      9  C14 OHN d          39.738  -1.343   7.831  0.00  0.00     0.062 C 
ATOM     10  C15 OHN d          39.464  -2.738   8.417  0.00  0.00     0.181 C 
ATOM     11  O4  OHN d          40.568  -3.012   9.260  0.00  0.00    -0.320 OA
ATOM     12  C16 OHN d          41.321  -1.818   9.459  0.00  0.00     0.281 C 
ATOM     13  O3  OHN d          42.300  -1.774  10.153  0.00  0.00    -0.263 OA
ENDBRANCH   5   8
ENDBRANCH   3   4
ENDBRANCH   1   3
BRANCH   1  14
ATOM     14  C9  OHN d          44.823   1.936   8.714  0.00  0.00     0.079 C 
BRANCH  14  15
ATOM     15  C8  OHN d          45.243   0.667   9.414  0.00  0.00     0.007 C 
BRANCH  15  16
ATOM     16  C7  OHN d          46.125   1.134  10.562  0.00  0.00     0.000 C 
BRANCH  16  17
ATOM     17  C6  OHN d          47.343   0.214  10.699  0.00  0.00     0.000 C 
BRANCH  17  18
ATOM     18  C5  OHN d          48.146   0.281   9.409  0.00  0.00     0.000 C 
BRANCH  18  19
ATOM     19  C4  OHN d          49.164   1.396   9.499  0.00  0.00     0.000 C 
BRANCH  19  20
ATOM     20  C3  OHN d          48.987   2.353   8.335  0.00  0.00    -0.000 C 
BRANCH  20  21
ATOM     21  C2  OHN d          48.145   1.696   7.265  0.00  0.00    -0.005 C 
ATOM     22  C1  OHN d          47.598   2.792   6.393  0.00  0.00     0.005 C 
ENDBRANCH  20  21
ENDBRANCH  19  20
ENDBRANCH  18  19
ENDBRANCH  17  18
ENDBRANCH  16  17
ENDBRANCH  15  16
ENDBRANCH  14  15
ENDBRANCH   1  14
TORSDOF 11
ENDMDL
MODEL 3
REMARK VINA RESULT:      -4.7      4.980      7.804
REMARK  11 active torsions:
REMARK  status: ('A' for Active; 'I' for Inactive)
REMARK    1  A    between atoms: C3_3  and  C2_2 
REMARK    2  A    between atoms: C4_4  and  C3_3 
REMARK    3  A    between atoms: C5_5  and  C4_4 
REMARK    4  A    between atoms: C6_6  and  C5_5 
REMARK    5  A    between atoms: C7_7  and  C6_6 
REMARK    6  A    between atoms: C8_8  and  C7_7 
REMARK    7  A    between atoms: C9_9  and  C8_8 
REMARK    8  A    between atoms: C10_10  and  C9_9 
REMARK    9  A    between atoms: C11_12  and  C10_10 
REMARK   10  A    between atoms: C11_12  and  C12_13 
REMARK       I    between atoms: C12_13  and  N1_15 
REMARK   11  A    between atoms: C13_16  and  N1_15 
ROOT
ATOM      1  C10 OHN d          45.025   1.733   7.356  0.00  0.00     0.135 C 
ATOM      2  O1  OHN d          44.315   1.812   6.368  0.00  0.00    -0.297 OA
ENDROOT
BRANCH   1   3
ATOM      3  C11 OHN d          44.645   0.887   8.526  0.00  0.00     0.181 C 
BRANCH   3   4
ATOM      4  C12 OHN d          43.171   1.014   8.810  0.00  0.00     0.225 C 
ATOM      5  N1  OHN d          42.299   0.486   7.961  0.00  0.00    -0.347 N 
ATOM      6  H19 OHN d          42.594   0.021   7.114  0.00  0.00     0.163 HD
ATOM      7  O2  OHN d          42.839   1.603   9.811  0.00  0.00    -0.273 OA
BRANCH   5   8
ATOM      8  C13 OHN d          40.914   0.613   8.312  0.00  0.00     0.186 C 
ATOM      9  C14 OHN d          40.175   1.748   7.608  0.00  0.00     0.062 C 
ATOM     10  C15 OHN d          38.774   1.229   7.241  0.00  0.00     0.181 C 
ATOM     11  O4  OHN d          38.881  -0.183   7.269  0.00  0.00    -0.320 OA
ATOM     12  C16 OHN d          40.109  -0.554   7.888  0.00  0.00     0.281 C 
ATOM     13  O3  OHN d          40.435  -1.698   8.055  0.00  0.00    -0.263 OA
ENDBRANCH   5   8
ENDBRANCH   3   4
ENDBRANCH   1   3
BRANCH   1  14
ATOM     14  C9  OHN d          46.281   2.538   7.452  0.00  0.00     0.079 C 
BRANCH  14  15
ATOM     15  C8  OHN d          47.441   1.869   6.756  0.00  0.00     0.007 C 
BRANCH  15  16
ATOM     16  C7  OHN d          48.574   2.881   6.837  0.00  0.00     0.000 C 
BRANCH  16  17
ATOM     17  C6  OHN d          48.741   3.371   8.279  0.00  0.00     0.000 C 
BRANCH  17  18
ATOM     18  C5  OHN d          49.999   2.743   8.859  0.00  0.00     0.000 C 
BRANCH  18  19
ATOM     19  C4  OHN d          49.626   1.578   9.749  0.00  0.00     0.000 C 
BRANCH  19  20
ATOM     20  C3  OHN d          48.374   1.910  10.537  0.00  0.00    -0.000 C 
BRANCH  20  21
ATOM     21  C2  OHN d          47.559   0.654  10.743  0.00  0.00    -0.005 C 
ATOM     22  C1  OHN d          47.930  -0.305   9.645  0.00  0.00     0.005 C 
ENDBRANCH  20  21
ENDBRANCH  19  20
ENDBRANCH  18  19
ENDBRANCH  17  18
ENDBRANCH  16  17
ENDBRANCH  15  16
ENDBRANCH  14  15
ENDBRANCH   1  14
TORSDOF 11
ENDMDL
MODEL 4
REMARK VINA RESULT:      -4.6      4.505      7.317
REMARK  11 active torsions:
REMARK  status: ('A' for Active; 'I' for Inactive)
REMARK    1  A    between atoms: C3_3  and  C2_2 
REMARK    2  A    between atoms: C4_4  and  C3_3 
REMARK    3  A    between atoms: C5_5  and  C4_4 
REMARK    4  A    between atoms: C6_6  and  C5_5 
REMARK    5  A    between atoms: C7_7  and  C6_6 
REMARK    6  A    between atoms: C8_8  and  C7_7 
REMARK    7  A    between atoms: C9_9  and  C8_8 
REMARK    8  A    between atoms: C10_10  and  C9_9 
REMARK    9  A    between atoms: C11_12  and  C10_10 
REMARK   10  A    between atoms: C11_12  and  C12_13 
REMARK       I    between atoms: C12_13  and  N1_15 
REMARK   11  A    between atoms: C13_16  and  N1_15 
ROOT
ATOM      1  C10 OHN d          44.788   1.354   7.695  0.00  0.00     0.135 C 
ATOM      2  O1  OHN d          44.297   1.153   6.598  0.00  0.00    -0.297 OA
ENDROOT
BRANCH   1   3
ATOM      3  C11 OHN d          44.440   0.509   8.875  0.00  0.00     0.181 C 
BRANCH   3   4
ATOM      4  C12 OHN d          42.953   0.530   9.117  0.00  0.00     0.225 C 
ATOM      5  N1  OHN d          42.135   0.103   8.164  0.00  0.00    -0.347 N 
ATOM      6  H19 OHN d          42.479  -0.215   7.270  0.00  0.00     0.163 HD
ATOM      7  O2  OHN d          42.561   0.946  10.182  0.00  0.00    -0.273 OA
BRANCH   5   8
ATOM      8  C13 OHN d          40.735   0.118   8.476  0.00  0.00     0.186 C 
ATOM      9  C14 OHN d          39.951   1.271   7.855  0.00  0.00     0.062 C 
ATOM     10  C15 OHN d          38.596   0.712   7.391  0.00  0.00     0.181 C 
ATOM     11  O4  OHN d          38.785  -0.688   7.290  0.00  0.00    -0.320 OA
ATOM     12  C16 OHN d          40.014  -1.047   7.915  0.00  0.00     0.281 C 
ATOM     13  O3  OHN d          40.403  -2.182   7.986  0.00  0.00    -0.263 OA
ENDBRANCH   5   8
ENDBRANCH   3   4
ENDBRANCH   1   3
BRANCH   1  14
ATOM     14  C9  OHN d          45.718   2.505   7.908  0.00  0.00     0.079 C 
BRANCH  14  15
ATOM     15  C8  OHN d          46.754   2.612   6.815  0.00  0.00     0.007 C 
BRANCH  15  16
ATOM     16  C7  OHN d          47.869   1.673   7.249  0.00  0.00     0.000 C 
BRANCH  16  17
ATOM     17  C6  OHN d          48.890   2.428   8.107  0.00  0.00     0.000 C 
BRANCH  17  18
ATOM     18  C5  OHN d          49.183   1.600   9.349  0.00  0.00     0.000 C 
BRANCH  18  19
ATOM     19  C4  OHN d          48.335   0.347   9.340  0.00  0.00     0.000 C 
BRANCH  19  20
ATOM     20  C3  OHN d          47.659   0.171  10.686  0.00  0.00    -0.000 C 
BRANCH  20  21
ATOM     21  C2  OHN d          47.263   1.523  11.234  0.00  0.00    -0.005 C 
ATOM     22  C1  OHN d          46.032   1.322  12.073  0.00  0.00     0.005 C 
ENDBRANCH  20  21
ENDBRANCH  19  20
ENDBRANCH  18  19
ENDBRANCH  17  18
ENDBRANCH  16  17
ENDBRANCH  15  16
ENDBRANCH  14  15
ENDBRANCH   1  14
TORSDOF 11
ENDMDL
MODEL 5
REMARK VINA RESULT:      -4.6      3.999      6.486
REMARK  11 active torsions:
REMARK  status: ('A' for Active; 'I' for Inactive)
REMARK    1  A    between atoms: C3_3  and  C2_2 
REMARK    2  A    between atoms: C4_4  and  C3_3 
REMARK    3  A    between atoms: C5_5  and  C4_4 
REMARK    4  A    between atoms: C6_6  and  C5_5 
REMARK    5  A    between atoms: C7_7  and  C6_6 
REMARK    6  A    between atoms: C8_8  and  C7_7 
REMARK    7  A    between atoms: C9_9  and  C8_8 
REMARK    8  A    between atoms: C10_10  and  C9_9 
REMARK    9  A    between atoms: C11_12  and  C10_10 
REMARK   10  A    between atoms: C11_12  and  C12_13 
REMARK       I    between atoms: C12_13  and  N1_15 
REMARK   11  A    between atoms: C13_16  and  N1_15 
ROOT
ATOM      1  C10 OHN d          43.581   1.495   7.631  0.00  0.00     0.135 C 
ATOM      2  O1  OHN d          42.589   2.100   7.262  0.00  0.00    -0.297 OA
ENDROOT
BRANCH   1   3
ATOM      3  C11 OHN d          43.556   0.609   8.831  0.00  0.00     0.181 C 
BRANCH   3   4
ATOM      4  C12 OHN d          42.151   0.141   9.109  0.00  0.00     0.225 C 
ATOM      5  N1  OHN d          41.508  -0.566   8.189  0.00  0.00    -0.347 N 
ATOM      6  H19 OHN d          41.925  -0.780   7.295  0.00  0.00     0.163 HD
ATOM      7  O2  OHN d          41.658   0.437  10.172  0.00  0.00    -0.273 OA
BRANCH   5   8
ATOM      8  C13 OHN d          40.188  -1.008   8.535  0.00  0.00     0.186 C 
ATOM      9  C14 OHN d          39.161  -0.906   7.410  0.00  0.00     0.062 C 
ATOM     10  C15 OHN d          38.278  -2.164   7.476  0.00  0.00     0.181 C 
ATOM     11  O4  OHN d          39.029  -3.109   8.216  0.00  0.00    -0.320 OA
ATOM     12  C16 OHN d          40.134  -2.456   8.837  0.00  0.00     0.281 C 
ATOM     13  O3  OHN d          40.919  -3.031   9.540  0.00  0.00    -0.263 OA
ENDBRANCH   5   8
ENDBRANCH   3   4
ENDBRANCH   1   3
BRANCH   1  14
ATOM     14  C9  OHN d          44.883   1.673   6.918  0.00  0.00     0.079 C 
BRANCH  14  15
ATOM     15  C8  OHN d          45.813   2.608   7.653  0.00  0.00     0.007 C 
BRANCH  15  16
ATOM     16  C7  OHN d          47.023   2.743   6.741  0.00  0.00     0.000 C 
BRANCH  16  17
ATOM     17  C6  OHN d          48.004   1.593   6.993  0.00  0.00     0.000 C 
BRANCH  17  18
ATOM     18  C5  OHN d          48.402   1.611   8.461  0.00  0.00     0.000 C 
BRANCH  18  19
ATOM     19  C4  OHN d          48.398   0.201   9.009  0.00  0.00     0.000 C 
BRANCH  19  20
ATOM     20  C3  OHN d          47.160  -0.021   9.856  0.00  0.00    -0.000 C 
BRANCH  20  21
ATOM     21  C2  OHN d          47.314   0.703  11.174  0.00  0.00    -0.005 C 
ATOM     22  C1  OHN d          46.041   1.465  11.417  0.00  0.00     0.005 C 
ENDBRANCH  20  21
ENDBRANCH  19  20
ENDBRANCH  18  19
ENDBRANCH  17  18
ENDBRANCH  16  17
ENDBRANCH  15  16
ENDBRANCH  14  15
ENDBRANCH   1  14
TORSDOF 11
ENDMDL
MODEL 6
REMARK VINA RESULT:      -4.6      0.892      1.871
REMARK  11 active torsions:
REMARK  status: ('A' for Active; 'I' for Inactive)
REMARK    1  A    between atoms: C3_3  and  C2_2 
REMARK    2  A    between atoms: C4_4  and  C3_3 
REMARK    3  A    between atoms: C5_5  and  C4_4 
REMARK    4  A    between atoms: C6_6  and  C5_5 
REMARK    5  A    between atoms: C7_7  and  C6_6 
REMARK    6  A    between atoms: C8_8  and  C7_7 
REMARK    7  A    between atoms: C9_9  and  C8_8 
REMARK    8  A    between atoms: C10_10  and  C9_9 
REMARK    9  A    between atoms: C11_12  and  C10_10 
REMARK   10  A    between atoms: C11_12  and  C12_13 
REMARK       I    between atoms: C12_13  and  N1_15 
REMARK   11  A    between atoms: C13_16  and  N1_15 
ROOT
ATOM      1  C10 OHN d          39.291  -2.340   7.995  0.00  0.00     0.135 C 
ATOM      2  O1  OHN d          38.977  -3.320   8.648  0.00  0.00    -0.297 OA
ENDROOT
BRANCH   1   3
ATOM      3  C11 OHN d          38.663  -2.045   6.674  0.00  0.00     0.181 C 
BRANCH   3   4
ATOM      4  C12 OHN d          37.808  -3.203   6.229  0.00  0.00     0.225 C 
ATOM      5  N1  OHN d          38.392  -4.301   5.767  0.00  0.00    -0.347 N 
ATOM      6  H19 OHN d          39.395  -4.375   5.683  0.00  0.00     0.163 HD
ATOM      7  O2  OHN d          36.608  -3.080   6.307  0.00  0.00    -0.273 OA
BRANCH   5   8
ATOM      8  C13 OHN d          37.518  -5.376   5.395  0.00  0.00     0.186 C 
ATOM      9  C14 OHN d          37.811  -5.999   4.032  0.00  0.00     0.062 C 
ATOM     10  C15 OHN d          37.626  -7.520   4.170  0.00  0.00     0.181 C 
ATOM     11  O4  OHN d          37.722  -7.782   5.558  0.00  0.00    -0.320 OA
ATOM     12  C16 OHN d          37.658  -6.555   6.279  0.00  0.00     0.281 C 
ATOM     13  O3  OHN d          37.697  -6.501   7.479  0.00  0.00    -0.263 OA
ENDBRANCH   5   8
ENDBRANCH   3   4
ENDBRANCH   1   3
BRANCH   1  14
ATOM     14  C9  OHN d          40.370  -1.424   8.477  0.00  0.00     0.079 C 
BRANCH  14  15
ATOM     15  C8  OHN d          40.005  -0.744   9.774  0.00  0.00     0.007 C 
BRANCH  15  16
ATOM     16  C7  OHN d          39.097   0.405   9.365  0.00  0.00     0.000 C 
BRANCH  16  17
ATOM     17  C6  OHN d          39.791   1.745   9.632  0.00  0.00     0.000 C 
BRANCH  17  18
ATOM     18  C5  OHN d          39.747   2.574   8.357  0.00  0.00     0.000 C 
BRANCH  18  19
ATOM     19  C4  OHN d          40.848   2.128   7.420  0.00  0.00     0.000 C 
BRANCH  19  20
ATOM     20  C3  OHN d          42.199   2.312   8.085  0.00  0.00    -0.000 C 
BRANCH  20  21
ATOM     21  C2  OHN d          43.030   1.064   7.893  0.00  0.00    -0.005 C 
ATOM     22  C1  OHN d          44.015   1.348   6.793  0.00  0.00     0.005 C 
ENDBRANCH  20  21
ENDBRANCH  19  20
ENDBRANCH  18  19
ENDBRANCH  17  18
ENDBRANCH  16  17
ENDBRANCH  15  16
ENDBRANCH  14  15
ENDBRANCH   1  14
TORSDOF 11
ENDMDL
MODEL 7
REMARK VINA RESULT:      -4.6      1.014      2.220
REMARK  11 active torsions:
REMARK  status: ('A' for Active; 'I' for Inactive)
REMARK    1  A    between atoms: C3_3  and  C2_2 
REMARK    2  A    between atoms: C4_4  and  C3_3 
REMARK    3  A    between atoms: C5_5  and  C4_4 
REMARK    4  A    between atoms: C6_6  and  C5_5 
REMARK    5  A    between atoms: C7_7  and  C6_6 
REMARK    6  A    between atoms: C8_8  and  C7_7 
REMARK    7  A    between atoms: C9_9  and  C8_8 
REMARK    8  A    between atoms: C10_10  and  C9_9 
REMARK    9  A    between atoms: C11_12  and  C10_10 
REMARK   10  A    between atoms: C11_12  and  C12_13 
REMARK       I    between atoms: C12_13  and  N1_15 
REMARK   11  A    between atoms: C13_16  and  N1_15 
ROOT
ATOM      1  C10 OHN d          39.284  -2.425   8.070  0.00  0.00     0.135 C 
ATOM      2  O1  OHN d          38.998  -3.436   8.688  0.00  0.00    -0.297 OA
ENDROOT
BRANCH   1   3
ATOM      3  C11 OHN d          38.651  -2.107   6.756  0.00  0.00     0.181 C 
BRANCH   3   4
ATOM      4  C12 OHN d          37.798  -3.258   6.291  0.00  0.00     0.225 C 
ATOM      5  N1  OHN d          38.382  -4.330   5.772  0.00  0.00    -0.347 N 
ATOM      6  H19 OHN d          39.383  -4.388   5.657  0.00  0.00     0.163 HD
ATOM      7  O2  OHN d          36.599  -3.155   6.407  0.00  0.00    -0.273 OA
BRANCH   5   8
ATOM      8  C13 OHN d          37.511  -5.402   5.384  0.00  0.00     0.186 C 
ATOM      9  C14 OHN d          37.810  -6.009   4.015  0.00  0.00     0.062 C 
ATOM     10  C15 OHN d          37.627  -7.531   4.135  0.00  0.00     0.181 C 
ATOM     11  O4  OHN d          37.717  -7.810   5.520  0.00  0.00    -0.320 OA
ATOM     12  C16 OHN d          37.648  -6.591   6.255  0.00  0.00     0.281 C 
ATOM     13  O3  OHN d          37.682  -6.551   7.455  0.00  0.00    -0.263 OA
ENDBRANCH   5   8
ENDBRANCH   3   4
ENDBRANCH   1   3
BRANCH   1  14
ATOM     14  C9  OHN d          40.334  -1.494   8.585  0.00  0.00     0.079 C 
BRANCH  14  15
ATOM     15  C8  OHN d          40.168  -0.093   8.049  0.00  0.00     0.007 C 
BRANCH  15  16
ATOM     16  C7  OHN d          40.327   0.807   9.264  0.00  0.00     0.000 C 
BRANCH  16  17
ATOM     17  C6  OHN d          40.726   2.220   8.825  0.00  0.00     0.000 C 
BRANCH  17  18
ATOM     18  C5  OHN d          41.468   2.123   7.501  0.00  0.00     0.000 C 
BRANCH  18  19
ATOM     19  C4  OHN d          42.932   2.442   7.711  0.00  0.00     0.000 C 
BRANCH  19  20
ATOM     20  C3  OHN d          43.782   1.245   7.331  0.00  0.00    -0.000 C 
BRANCH  20  21
ATOM     21  C2  OHN d          44.713   0.904   8.471  0.00  0.00    -0.005 C 
ATOM     22  C1  OHN d          43.912   0.141   9.490  0.00  0.00     0.005 C 
ENDBRANCH  20  21
ENDBRANCH  19  20
ENDBRANCH  18  19
ENDBRANCH  17  18
ENDBRANCH  16  17
ENDBRANCH  15  16
ENDBRANCH  14  15
ENDBRANCH   1  14
TORSDOF 11
ENDMDL
MODEL 8
REMARK VINA RESULT:      -4.6      2.973      4.825
REMARK  11 active torsions:
REMARK  status: ('A' for Active; 'I' for Inactive)
REMARK    1  A    between atoms: C3_3  and  C2_2 
REMARK    2  A    between atoms: C4_4  and  C3_3 
REMARK    3  A    between atoms: C5_5  and  C4_4 
REMARK    4  A    between atoms: C6_6  and  C5_5 
REMARK    5  A    between atoms: C7_7  and  C6_6 
REMARK    6  A    between atoms: C8_8  and  C7_7 
REMARK    7  A    between atoms: C9_9  and  C8_8 
REMARK    8  A    between atoms: C10_10  and  C9_9 
REMARK    9  A    between atoms: C11_12  and  C10_10 
REMARK   10  A    between atoms: C11_12  and  C12_13 
REMARK       I    between atoms: C12_13  and  N1_15 
REMARK   11  A    between atoms: C13_16  and  N1_15 
ROOT
ATOM      1  C10 OHN d          39.280   1.777   7.376  0.00  0.00     0.135 C 
ATOM      2  O1  OHN d          38.649   1.940   6.346  0.00  0.00    -0.297 OA
ENDROOT
BRANCH   1   3
ATOM      3  C11 OHN d          38.615   1.346   8.641  0.00  0.00     0.181 C 
BRANCH   3   4
ATOM      4  C12 OHN d          38.396  -0.144   8.639  0.00  0.00     0.225 C 
ATOM      5  N1  OHN d          38.015  -0.742   7.518  0.00  0.00    -0.347 N 
ATOM      6  H19 OHN d          37.843  -0.223   6.669  0.00  0.00     0.163 HD
ATOM      7  O2  OHN d          38.574  -0.742   9.674  0.00  0.00    -0.273 OA
BRANCH   5   8
ATOM      8  C13 OHN d          37.860  -2.167   7.579  0.00  0.00     0.186 C 
ATOM      9  C14 OHN d          36.631  -2.711   6.856  0.00  0.00     0.062 C 
ATOM     10  C15 OHN d          37.048  -4.011   6.149  0.00  0.00     0.181 C 
ATOM     11  O4  OHN d          38.460  -3.946   6.051  0.00  0.00    -0.320 OA
ATOM     12  C16 OHN d          38.944  -2.888   6.875  0.00  0.00     0.281 C 
ATOM     13  O3  OHN d          40.112  -2.632   6.987  0.00  0.00    -0.263 OA
ENDBRANCH   5   8
ENDBRANCH   3   4
ENDBRANCH   1   3
BRANCH   1  14
ATOM     14  C9  OHN d          40.746   2.065   7.419  0.00  0.00     0.079 C 
BRANCH  14  15
ATOM     15  C8  OHN d          41.231   2.356   8.819  0.00  0.00     0.007 C 
BRANCH  15  16
ATOM     16  C7  OHN d          42.746   2.266   8.730  0.00  0.00     0.000 C 
BRANCH  16  17
ATOM     17  C6  OHN d          43.191   2.311   7.264  0.00  0.00     0.000 C 
BRANCH  17  18
ATOM     18  C5  OHN d          44.368   1.365   7.087  0.00  0.00     0.000 C 
BRANCH  18  19
ATOM     19  C4  OHN d          45.662   2.150   7.101  0.00  0.00     0.000 C 
BRANCH  19  20
ATOM     20  C3  OHN d          46.560   1.645   8.214  0.00  0.00    -0.000 C 
BRANCH  20  21
ATOM     21  C2  OHN d          47.975   1.513   7.699  0.00  0.00    -0.005 C 
ATOM     22  C1  OHN d          48.121   2.463   6.543  0.00  0.00     0.005 C 
ENDBRANCH  20  21
ENDBRANCH  19  20
ENDBRANCH  18  19
ENDBRANCH  17  18
ENDBRANCH  16  17
ENDBRANCH  15  16
ENDBRANCH  14  15
ENDBRANCH   1  14
TORSDOF 11
ENDMDL
MODEL 9
REMARK VINA RESULT:      -4.6      2.841      8.556
REMARK  11 active torsions:
REMARK  status: ('A' for Active; 'I' for Inactive)
REMARK    1  A    between atoms: C3_3  and  C2_2 
REMARK    2  A    between atoms: C4_4  and  C3_3 
REMARK    3  A    between atoms: C5_5  and  C4_4 
REMARK    4  A    between atoms: C6_6  and  C5_5 
REMARK    5  A    between atoms: C7_7  and  C6_6 
REMARK    6  A    between atoms: C8_8  and  C7_7 
REMARK    7  A    between atoms: C9_9  and  C8_8 
REMARK    8  A    between atoms: C10_10  and  C9_9 
REMARK    9  A    between atoms: C11_12  and  C10_10 
REMARK   10  A    between atoms: C11_12  and  C12_13 
REMARK       I    between atoms: C12_13  and  N1_15 
REMARK   11  A    between atoms: C13_16  and  N1_15 
ROOT
ATOM      1  C10 OHN d          39.353  -2.025   7.356  0.00  0.00     0.135 C 
ATOM      2  O1  OHN d          38.976  -0.907   7.048  0.00  0.00    -0.297 OA
ENDROOT
BRANCH   1   3
ATOM      3  C11 OHN d          40.157  -2.267   8.590  0.00  0.00     0.181 C 
BRANCH   3   4
ATOM      4  C12 OHN d          40.905  -1.020   8.983  0.00  0.00     0.225 C 
ATOM      5  N1  OHN d          41.754  -0.474   8.121  0.00  0.00    -0.347 N 
ATOM      6  H19 OHN d          41.932  -0.885   7.216  0.00  0.00     0.163 HD
ATOM      7  O2  OHN d          40.703  -0.564  10.084  0.00  0.00    -0.273 OA
BRANCH   5   8
ATOM      8  C13 OHN d          42.404   0.731   8.548  0.00  0.00     0.186 C 
ATOM      9  C14 OHN d          43.928   0.709   8.446  0.00  0.00     0.062 C 
ATOM     10  C15 OHN d          44.377   2.092   7.944  0.00  0.00     0.181 C 
ATOM     11  O4  OHN d          43.228   2.661   7.343  0.00  0.00    -0.320 OA
ATOM     12  C16 OHN d          42.081   1.889   7.685  0.00  0.00     0.281 C 
ATOM     13  O3  OHN d          40.972   2.171   7.318  0.00  0.00    -0.263 OA
ENDBRANCH   5   8
ENDBRANCH   3   4
ENDBRANCH   1   3
BRANCH   1  14
ATOM     14  C9  OHN d          39.070  -3.191   6.465  0.00  0.00     0.079 C 
BRANCH  14  15
ATOM     15  C8  OHN d          37.593  -3.360   6.198  0.00  0.00     0.007 C 
BRANCH  15  16
ATOM     16  C7  OHN d          37.357  -4.860   6.274  0.00  0.00     0.000 C 
BRANCH  16  17
ATOM     17  C6  OHN d          36.506  -5.321   5.086  0.00  0.00     0.000 C 
BRANCH  17  18
ATOM     18  C5  OHN d          37.429  -5.914   4.032  0.00  0.00     0.000 C 
BRANCH  18  19
ATOM     19  C4  OHN d          36.737  -7.065   3.337  0.00  0.00     0.000 C 
BRANCH  19  20
ATOM     20  C3  OHN d          37.521  -8.345   3.551  0.00  0.00    -0.000 C 
BRANCH  20  21
ATOM     21  C2  OHN d          38.896  -8.013   4.083  0.00  0.00    -0.005 C 
ATOM     22  C1  OHN d          39.120  -8.861   5.304  0.00  0.00     0.005 C 
ENDBRANCH  20  21
ENDBRANCH  19  20
ENDBRANCH  18  19
ENDBRANCH  17  18
ENDBRANCH  16  17
ENDBRANCH  15  16
ENDBRANCH  14  15
ENDBRANCH   1  14
TORSDOF 11
ENDMDL
MODEL 10
REMARK VINA RESULT:      -4.6      4.533      7.065
REMARK  11 active torsions:
REMARK  status: ('A' for Active; 'I' for Inactive)
REMARK    1  A    between atoms: C3_3  and  C2_2 
REMARK    2  A    between atoms: C4_4  and  C3_3 
REMARK    3  A    between atoms: C5_5  and  C4_4 
REMARK    4  A    between atoms: C6_6  and  C5_5 
REMARK    5  A    between atoms: C7_7  and  C6_6 
REMARK    6  A    between atoms: C8_8  and  C7_7 
REMARK    7  A    between atoms: C9_9  and  C8_8 
REMARK    8  A    between atoms: C10_10  and  C9_9 
REMARK    9  A    between atoms: C11_12  and  C10_10 
REMARK   10  A    between atoms: C11_12  and  C12_13 
REMARK       I    between atoms: C12_13  and  N1_15 
REMARK   11  A    between atoms: C13_16  and  N1_15 
ROOT
ATOM      1  C10 OHN d          44.554   1.191   7.996  0.00  0.00     0.135 C 
ATOM      2  O1  OHN d          43.920   1.019   6.970  0.00  0.00    -0.297 OA
ENDROOT
BRANCH   1   3
ATOM      3  C11 OHN d          44.287   0.388   9.225  0.00  0.00     0.181 C 
BRANCH   3   4
ATOM      4  C12 OHN d          42.808   0.142   9.381  0.00  0.00     0.225 C 
ATOM      5  N1  OHN d          42.266  -0.927   8.814  0.00  0.00    -0.347 N 
ATOM      6  H19 OHN d          42.811  -1.571   8.259  0.00  0.00     0.163 HD
ATOM      7  O2  OHN d          42.168   0.942  10.021  0.00  0.00    -0.273 OA
BRANCH   5   8
ATOM      8  C13 OHN d          40.861  -1.117   9.033  0.00  0.00     0.186 C 
ATOM      9  C14 OHN d          39.980  -0.859   7.813  0.00  0.00     0.062 C 
ATOM     10  C15 OHN d          38.882  -1.936   7.799  0.00  0.00     0.181 C 
ATOM     11  O4  OHN d          39.377  -2.983   8.614  0.00  0.00    -0.320 OA
ATOM     12  C16 OHN d          40.517  -2.525   9.335  0.00  0.00     0.281 C 
ATOM     13  O3  OHN d          41.116  -3.216  10.115  0.00  0.00    -0.263 OA
ENDBRANCH   5   8
ENDBRANCH   3   4
ENDBRANCH   1   3
BRANCH   1  14
ATOM     14  C9  OHN d          45.590   2.266   8.074  0.00  0.00     0.079 C 
BRANCH  14  15
ATOM     15  C8  OHN d          46.287   2.485   6.753  0.00  0.00     0.007 C 
BRANCH  15  16
ATOM     16  C7  OHN d          47.660   1.856   6.933  0.00  0.00     0.000 C 
BRANCH  16  17
ATOM     17  C6  OHN d          48.731   2.948   7.028  0.00  0.00     0.000 C 
BRANCH  17  18
ATOM     18  C5  OHN d          49.291   2.952   8.442  0.00  0.00     0.000 C 
BRANCH  18  19
ATOM     19  C4  OHN d          49.162   1.571   9.047  0.00  0.00     0.000 C 
BRANCH  19  20
ATOM     20  C3  OHN d          48.699   1.678  10.487  0.00  0.00    -0.000 C 
BRANCH  20  21
ATOM     21  C2  OHN d          47.659   0.617  10.763  0.00  0.00    -0.005 C 
ATOM     22  C1  OHN d          47.833  -0.460   9.728  0.00  0.00     0.005 C 
ENDBRANCH  20  21
ENDBRANCH  19  20
ENDBRANCH  18  19
ENDBRANCH  17  18
ENDBRANCH  16  17
ENDBRANCH  15  16
ENDBRANCH  14  15
ENDBRANCH   1  14
TORSDOF 11
ENDMDL
MODEL 11
REMARK VINA RESULT:      -4.6      2.197      4.083
REMARK  11 active torsions:
REMARK  status: ('A' for Active; 'I' for Inactive)
REMARK    1  A    between atoms: C3_3  and  C2_2 
REMARK    2  A    between atoms: C4_4  and  C3_3 
REMARK    3  A    between atoms: C5_5  and  C4_4 
REMARK    4  A    between atoms: C6_6  and  C5_5 
REMARK    5  A    between atoms: C7_7  and  C6_6 
REMARK    6  A    between atoms: C8_8  and  C7_7 
REMARK    7  A    between atoms: C9_9  and  C8_8 
REMARK    8  A    between atoms: C10_10  and  C9_9 
REMARK    9  A    between atoms: C11_12  and  C10_10 
REMARK   10  A    between atoms: C11_12  and  C12_13 
REMARK       I    between atoms: C12_13  and  N1_15 
REMARK   11  A    between atoms: C13_16  and  N1_15 
ROOT
ATOM      1  C10 OHN d          39.299   1.739   7.432  0.00  0.00     0.135 C 
ATOM      2  O1  OHN d          38.680   1.885   6.392  0.00  0.00    -0.297 OA
ENDROOT
BRANCH   1   3
ATOM      3  C11 OHN d          38.624   1.303   8.690  0.00  0.00     0.181 C 
BRANCH   3   4
ATOM      4  C12 OHN d          38.378  -0.183   8.667  0.00  0.00     0.225 C 
ATOM      5  N1  OHN d          38.035  -0.766   7.525  0.00  0.00    -0.347 N 
ATOM      6  H19 OHN d          37.910  -0.238   6.674  0.00  0.00     0.163 HD
ATOM      7  O2  OHN d          38.500  -0.791   9.704  0.00  0.00    -0.273 OA
BRANCH   5   8
ATOM      8  C13 OHN d          37.851  -2.188   7.570  0.00  0.00     0.186 C 
ATOM      9  C14 OHN d          36.633  -2.702   6.806  0.00  0.00     0.062 C 
ATOM     10  C15 OHN d          37.046  -4.004   6.099  0.00  0.00     0.181 C 
ATOM     11  O4  OHN d          38.460  -3.965   6.043  0.00  0.00    -0.320 OA
ATOM     12  C16 OHN d          38.940  -2.924   6.889  0.00  0.00     0.281 C 
ATOM     13  O3  OHN d          40.110  -2.692   7.037  0.00  0.00    -0.263 OA
ENDBRANCH   5   8
ENDBRANCH   3   4
ENDBRANCH   1   3
BRANCH   1  14
ATOM     14  C9  OHN d          40.759   2.053   7.493  0.00  0.00     0.079 C 
BRANCH  14  15
ATOM     15  C8  OHN d          41.126   2.823   8.739  0.00  0.00     0.007 C 
BRANCH  15  16
ATOM     16  C7  OHN d          42.630   2.648   8.872  0.00  0.00     0.000 C 
BRANCH  16  17
ATOM     17  C6  OHN d          43.138   1.644   7.832  0.00  0.00     0.000 C 
BRANCH  17  18
ATOM     18  C5  OHN d          44.167   0.741   8.495  0.00  0.00     0.000 C 
BRANCH  18  19
ATOM     19  C4  OHN d          43.625   0.229   9.811  0.00  0.00     0.000 C 
BRANCH  19  20
ATOM     20  C3  OHN d          42.702  -0.949   9.568  0.00  0.00    -0.000 C 
BRANCH  20  21
ATOM     21  C2  OHN d          41.850  -1.185  10.794  0.00  0.00    -0.005 C 
ATOM     22  C1  OHN d          41.495   0.163  11.357  0.00  0.00     0.005 C 
ENDBRANCH  20  21
ENDBRANCH  19  20
ENDBRANCH  18  19
ENDBRANCH  17  18
ENDBRANCH  16  17
ENDBRANCH  15  16
ENDBRANCH  14  15
ENDBRANCH   1  14
TORSDOF 11
ENDMDL
MODEL 12
REMARK VINA RESULT:      -4.5      4.353      6.924
REMARK  11 active torsions:
REMARK  status: ('A' for Active; 'I' for Inactive)
REMARK    1  A    between atoms: C3_3  and  C2_2 
REMARK    2  A    between atoms: C4_4  and  C3_3 
REMARK    3  A    between atoms: C5_5  and  C4_4 
REMARK    4  A    between atoms: C6_6  and  C5_5 
REMARK    5  A    between atoms: C7_7  and  C6_6 
REMARK    6  A    between atoms: C8_8  and  C7_7 
REMARK    7  A    between atoms: C9_9  and  C8_8 
REMARK    8  A    between atoms: C10_10  and  C9_9 
REMARK    9  A    between atoms: C11_12  and  C10_10 
REMARK   10  A    between atoms: C11_12  and  C12_13 
REMARK       I    between atoms: C12_13  and  N1_15 
REMARK   11  A    between atoms: C13_16  and  N1_15 
ROOT
ATOM      1  C10 OHN d          44.490   1.083   8.646  0.00  0.00     0.135 C 
ATOM      2  O1  OHN d          44.322   1.229   7.448  0.00  0.00    -0.297 OA
ENDROOT
BRANCH   1   3
ATOM      3  C11 OHN d          44.120  -0.188   9.338  0.00  0.00     0.181 C 
BRANCH   3   4
ATOM      4  C12 OHN d          42.627  -0.275   9.514  0.00  0.00     0.225 C 
ATOM      5  N1  OHN d          41.855  -0.420   8.445  0.00  0.00    -0.347 N 
ATOM      6  H19 OHN d          42.238  -0.450   7.511  0.00  0.00     0.163 HD
ATOM      7  O2  OHN d          42.187  -0.203  10.637  0.00  0.00    -0.273 OA
BRANCH   5   8
ATOM      8  C13 OHN d          40.446  -0.532   8.690  0.00  0.00     0.186 C 
ATOM      9  C14 OHN d          39.651   0.751   8.463  0.00  0.00     0.062 C 
ATOM     10  C15 OHN d          38.326   0.361   7.787  0.00  0.00     0.181 C 
ATOM     11  O4  OHN d          38.556  -0.920   7.229  0.00  0.00    -0.320 OA
ATOM     12  C16 OHN d          39.775  -1.450   7.744  0.00  0.00     0.281 C 
ATOM     13  O3  OHN d          40.191  -2.537   7.444  0.00  0.00    -0.263 OA
ENDBRANCH   5   8
ENDBRANCH   3   4
ENDBRANCH   1   3
BRANCH   1  14
ATOM     14  C9  OHN d          45.020   2.205   9.479  0.00  0.00     0.079 C 
BRANCH  14  15
ATOM     15  C8  OHN d          45.554   1.727  10.808  0.00  0.00     0.007 C 
BRANCH  15  16
ATOM     16  C7  OHN d          47.065   1.720  10.637  0.00  0.00     0.000 C 
BRANCH  16  17
ATOM     17  C6  OHN d          47.577   0.280  10.533  0.00  0.00     0.000 C 
BRANCH  17  18
ATOM     18  C5  OHN d          48.266   0.108   9.188  0.00  0.00     0.000 C 
BRANCH  18  19
ATOM     19  C4  OHN d          48.423   1.455   8.518  0.00  0.00     0.000 C 
BRANCH  19  20
ATOM     20  C3  OHN d          47.915   1.385   7.091  0.00  0.00    -0.000 C 
BRANCH  20  21
ATOM     21  C2  OHN d          47.734   2.785   6.550  0.00  0.00    -0.005 C 
ATOM     22  C1  OHN d          49.100   3.407   6.454  0.00  0.00     0.005 C 
ENDBRANCH  20  21
ENDBRANCH  19  20
ENDBRANCH  18  19
ENDBRANCH  17  18
ENDBRANCH  16  17
ENDBRANCH  15  16
ENDBRANCH  14  15
ENDBRANCH   1  14
TORSDOF 11
ENDMDL
MODEL 13
REMARK VINA RESULT:      -4.5      4.292      7.210
REMARK  11 active torsions:
REMARK  status: ('A' for Active; 'I' for Inactive)
REMARK    1  A    between atoms: C3_3  and  C2_2 
REMARK    2  A    between atoms: C4_4  and  C3_3 
REMARK    3  A    between atoms: C5_5  and  C4_4 
REMARK    4  A    between atoms: C6_6  and  C5_5 
REMARK    5  A    between atoms: C7_7  and  C6_6 
REMARK    6  A    between atoms: C8_8  and  C7_7 
REMARK    7  A    between atoms: C9_9  and  C8_8 
REMARK    8  A    between atoms: C10_10  and  C9_9 
REMARK    9  A    between atoms: C11_12  and  C10_10 
REMARK   10  A    between atoms: C11_12  and  C12_13 
REMARK       I    between atoms: C12_13  and  N1_15 
REMARK   11  A    between atoms: C13_16  and  N1_15 
ROOT
ATOM      1  C10 OHN d          40.742  -1.194   9.233  0.00  0.00     0.135 C 
ATOM      2  O1  OHN d          40.886  -1.455   8.051  0.00  0.00    -0.297 OA
ENDROOT
BRANCH   1   3
ATOM      3  C11 OHN d          41.859  -1.350  10.211  0.00  0.00     0.181 C 
BRANCH   3   4
ATOM      4  C12 OHN d          42.849  -0.224  10.062  0.00  0.00     0.225 C 
ATOM      5  N1  OHN d          43.561  -0.131   8.946  0.00  0.00    -0.347 N 
ATOM      6  H19 OHN d          43.477  -0.807   8.202  0.00  0.00     0.163 HD
ATOM      7  O2  OHN d          42.958   0.555  10.978  0.00  0.00    -0.273 OA
BRANCH   5   8
ATOM      8  C13 OHN d          44.458   0.985   8.859  0.00  0.00     0.186 C 
ATOM      9  C14 OHN d          45.850   0.737   9.434  0.00  0.00     0.062 C 
ATOM     10  C15 OHN d          46.865   1.411   8.495  0.00  0.00     0.181 C 
ATOM     11  O4  OHN d          46.181   1.579   7.266  0.00  0.00    -0.320 OA
ATOM     12  C16 OHN d          44.790   1.340   7.460  0.00  0.00     0.281 C 
ATOM     13  O3  OHN d          43.983   1.437   6.576  0.00  0.00    -0.263 OA
ENDBRANCH   5   8
ENDBRANCH   3   4
ENDBRANCH   1   3
BRANCH   1  14
ATOM     14  C9  OHN d          39.409  -0.762   9.755  0.00  0.00     0.079 C 
BRANCH  14  15
ATOM     15  C8  OHN d          38.326  -0.860   8.708  0.00  0.00     0.007 C 
BRANCH  15  16
ATOM     16  C7  OHN d          37.944   0.582   8.412  0.00  0.00     0.000 C 
BRANCH  16  17
ATOM     17  C6  OHN d          38.637   1.058   7.131  0.00  0.00     0.000 C 
BRANCH  17  18
ATOM     18  C5  OHN d          39.350   2.368   7.426  0.00  0.00     0.000 C 
BRANCH  18  19
ATOM     19  C4  OHN d          40.817   2.105   7.682  0.00  0.00     0.000 C 
BRANCH  19  20
ATOM     20  C3  OHN d          41.274   2.871   8.908  0.00  0.00    -0.000 C 
BRANCH  20  21
ATOM     21  C2  OHN d          40.068   3.328   9.697  0.00  0.00    -0.005 C 
ATOM     22  C1  OHN d          40.135   2.660  11.042  0.00  0.00     0.005 C 
ENDBRANCH  20  21
ENDBRANCH  19  20
ENDBRANCH  18  19
ENDBRANCH  17  18
ENDBRANCH  16  17
ENDBRANCH  15  16
ENDBRANCH  14  15
ENDBRANCH   1  14
TORSDOF 11
ENDMDL
MODEL 14
REMARK VINA RESULT:      -4.5      5.580      9.122
REMARK  11 active torsions:
REMARK  status: ('A' for Active; 'I' for Inactive)
REMARK    1  A    between atoms: C3_3  and  C2_2 
REMARK    2  A    between atoms: C4_4  and  C3_3 
REMARK    3  A    between atoms: C5_5  and  C4_4 
REMARK    4  A    between atoms: C6_6  and  C5_5 
REMARK    5  A    between atoms: C7_7  and  C6_6 
REMARK    6  A    between atoms: C8_8  and  C7_7 
REMARK    7  A    between atoms: C9_9  and  C8_8 
REMARK    8  A    between atoms: C10_10  and  C9_9 
REMARK    9  A    between atoms: C11_12  and  C10_10 
REMARK   10  A    between atoms: C11_12  and  C12_13 
REMARK       I    between atoms: C12_13  and  N1_15 
REMARK   11  A    between atoms: C13_16  and  N1_15 
ROOT
ATOM      1  C10 OHN d          42.423   2.250   7.876  0.00  0.00     0.135 C 
ATOM      2  O1  OHN d          42.892   3.144   8.559  0.00  0.00    -0.297 OA
ENDROOT
BRANCH   1   3
ATOM      3  C11 OHN d          43.268   1.129   7.367  0.00  0.00     0.181 C 
BRANCH   3   4
ATOM      4  C12 OHN d          44.685   1.274   7.859  0.00  0.00     0.225 C 
ATOM      5  N1  OHN d          45.516   2.080   7.213  0.00  0.00    -0.347 N 
ATOM      6  H19 OHN d          45.235   2.584   6.385  0.00  0.00     0.163 HD
ATOM      7  O2  OHN d          45.011   0.636   8.832  0.00  0.00    -0.273 OA
BRANCH   5   8
ATOM      8  C13 OHN d          46.838   2.196   7.758  0.00  0.00     0.186 C 
ATOM      9  C14 OHN d          47.964   2.132   6.729  0.00  0.00     0.062 C 
ATOM     10  C15 OHN d          49.024   3.169   7.139  0.00  0.00     0.181 C 
ATOM     11  O4  OHN d          48.351   4.071   7.998  0.00  0.00    -0.320 OA
ATOM     12  C16 OHN d          47.089   3.522   8.367  0.00  0.00     0.281 C 
ATOM     13  O3  OHN d          46.327   4.081   9.109  0.00  0.00    -0.263 OA
ENDBRANCH   5   8
ENDBRANCH   3   4
ENDBRANCH   1   3
BRANCH   1  14
ATOM     14  C9  OHN d          40.984   2.282   7.472  0.00  0.00     0.079 C 
BRANCH  14  15
ATOM     15  C8  OHN d          40.091   2.781   8.582  0.00  0.00     0.007 C 
BRANCH  15  16
ATOM     16  C7  OHN d          39.115   1.642   8.833  0.00  0.00     0.000 C 
BRANCH  16  17
ATOM     17  C6  OHN d          38.987   0.771   7.578  0.00  0.00     0.000 C 
BRANCH  17  18
ATOM     18  C5  OHN d          38.873  -0.683   8.009  0.00  0.00     0.000 C 
BRANCH  18  19
ATOM     19  C4  OHN d          40.227  -1.351   7.919  0.00  0.00     0.000 C 
BRANCH  19  20
ATOM     20  C3  OHN d          40.621  -1.907   9.273  0.00  0.00    -0.000 C 
BRANCH  20  21
ATOM     21  C2  OHN d          42.006  -1.422   9.636  0.00  0.00    -0.005 C 
ATOM     22  C1  OHN d          41.841  -0.270  10.588  0.00  0.00     0.005 C 
ENDBRANCH  20  21
ENDBRANCH  19  20
ENDBRANCH  18  19
ENDBRANCH  17  18
ENDBRANCH  16  17
ENDBRANCH  15  16
ENDBRANCH  14  15
ENDBRANCH   1  14
TORSDOF 11
ENDMDL
MODEL 15
REMARK VINA RESULT:      -4.5      5.456      8.061
REMARK  11 active torsions:
REMARK  status: ('A' for Active; 'I' for Inactive)
REMARK    1  A    between atoms: C3_3  and  C2_2 
REMARK    2  A    between atoms: C4_4  and  C3_3 
REMARK    3  A    between atoms: C5_5  and  C4_4 
REMARK    4  A    between atoms: C6_6  and  C5_5 
REMARK    5  A    between atoms: C7_7  and  C6_6 
REMARK    6  A    between atoms: C8_8  and  C7_7 
REMARK    7  A    between atoms: C9_9  and  C8_8 
REMARK    8  A    between atoms: C10_10  and  C9_9 
REMARK    9  A    between atoms: C11_12  and  C10_10 
REMARK   10  A    between atoms: C11_12  and  C12_13 
REMARK       I    between atoms: C12_13  and  N1_15 
REMARK   11  A    between atoms: C13_16  and  N1_15 
ROOT
ATOM      1  C10 OHN d          45.111   1.161   8.543  0.00  0.00     0.135 C 
ATOM      2  O1  OHN d          44.798   0.427   9.464  0.00  0.00    -0.297 OA
ENDROOT
BRANCH   1   3
ATOM      3  C11 OHN d          44.308   1.226   7.286  0.00  0.00     0.181 C 
BRANCH   3   4
ATOM      4  C12 OHN d          42.835   1.190   7.601  0.00  0.00     0.225 C 
ATOM      5  N1  OHN d          42.308   0.087   8.116  0.00  0.00    -0.347 N 
ATOM      6  H19 OHN d          42.862  -0.741   8.281  0.00  0.00     0.163 HD
ATOM      7  O2  OHN d          42.184   2.180   7.365  0.00  0.00    -0.273 OA
BRANCH   5   8
ATOM      8  C13 OHN d          40.908   0.136   8.424  0.00  0.00     0.186 C 
ATOM      9  C14 OHN d          40.098  -1.057   7.923  0.00  0.00     0.062 C 
ATOM     10  C15 OHN d          39.081  -1.418   9.019  0.00  0.00     0.181 C 
ATOM     11  O4  OHN d          39.590  -0.836  10.206  0.00  0.00    -0.320 OA
ATOM     12  C16 OHN d          40.643   0.066   9.878  0.00  0.00     0.281 C 
ATOM     13  O3  OHN d          41.232   0.707  10.706  0.00  0.00    -0.263 OA
ENDBRANCH   5   8
ENDBRANCH   3   4
ENDBRANCH   1   3
BRANCH   1  14
ATOM     14  C9  OHN d          46.356   1.985   8.621  0.00  0.00     0.079 C 
BRANCH  14  15
ATOM     15  C8  OHN d          47.603   1.152   8.450  0.00  0.00     0.007 C 
BRANCH  15  16
ATOM     16  C7  OHN d          48.069   1.442   7.032  0.00  0.00     0.000 C 
BRANCH  16  17
ATOM     17  C6  OHN d          47.927   2.937   6.726  0.00  0.00     0.000 C 
BRANCH  17  18
ATOM     18  C5  OHN d          49.307   3.501   6.425  0.00  0.00     0.000 C 
BRANCH  18  19
ATOM     19  C4  OHN d          49.781   4.341   7.591  0.00  0.00     0.000 C 
BRANCH  19  20
ATOM     20  C3  OHN d          50.832   3.585   8.380  0.00  0.00    -0.000 C 
BRANCH  20  21
ATOM     21  C2  OHN d          50.292   3.257   9.754  0.00  0.00    -0.005 C 
ATOM     22  C1  OHN d          50.823   1.901  10.130  0.00  0.00     0.005 C 
ENDBRANCH  20  21
ENDBRANCH  19  20
ENDBRANCH  18  19
ENDBRANCH  17  18
ENDBRANCH  16  17
ENDBRANCH  15  16
ENDBRANCH  14  15
ENDBRANCH   1  14
TORSDOF 11
ENDMDL
MODEL 16
REMARK VINA RESULT:      -4.5      4.901      7.688
REMARK  11 active torsions:
REMARK  status: ('A' for Active; 'I' for Inactive)
REMARK    1  A    between atoms: C3_3  and  C2_2 
REMARK    2  A    between atoms: C4_4  and  C3_3 
REMARK    3  A    between atoms: C5_5  and  C4_4 
REMARK    4  A    between atoms: C6_6  and  C5_5 
REMARK    5  A    between atoms: C7_7  and  C6_6 
REMARK    6  A    between atoms: C8_8  and  C7_7 
REMARK    7  A    between atoms: C9_9  and  C8_8 
REMARK    8  A    between atoms: C10_10  and  C9_9 
REMARK    9  A    between atoms: C11_12  and  C10_10 
REMARK   10  A    between atoms: C11_12  and  C12_13 
REMARK       I    between atoms: C12_13  and  N1_15 
REMARK   11  A    between atoms: C13_16  and  N1_15 
ROOT
ATOM      1  C10 OHN d          44.922   2.027   7.911  0.00  0.00     0.135 C 
ATOM      2  O1  OHN d          44.645   0.874   8.193  0.00  0.00    -0.297 OA
ENDROOT
BRANCH   1   3
ATOM      3  C11 OHN d          44.156   3.177   8.477  0.00  0.00     0.181 C 
BRANCH   3   4
ATOM      4  C12 OHN d          42.735   2.770   8.767  0.00  0.00     0.225 C 
ATOM      5  N1  OHN d          42.015   2.200   7.808  0.00  0.00    -0.347 N 
ATOM      6  H19 OHN d          42.385   2.052   6.881  0.00  0.00     0.163 HD
ATOM      7  O2  OHN d          42.301   2.987   9.873  0.00  0.00    -0.273 OA
BRANCH   5   8
ATOM      8  C13 OHN d          40.683   1.806   8.165  0.00  0.00     0.186 C 
ATOM      9  C14 OHN d          39.597   2.265   7.194  0.00  0.00     0.062 C 
ATOM     10  C15 OHN d          38.590   1.111   7.050  0.00  0.00     0.181 C 
ATOM     11  O4  OHN d          39.284  -0.046   7.478  0.00  0.00    -0.320 OA
ATOM     12  C16 OHN d          40.493   0.339   8.127  0.00  0.00     0.281 C 
ATOM     13  O3  OHN d          41.259  -0.455   8.602  0.00  0.00    -0.263 OA
ENDBRANCH   5   8
ENDBRANCH   3   4
ENDBRANCH   1   3
BRANCH   1  14
ATOM     14  C9  OHN d          46.010   2.325   6.931  0.00  0.00     0.079 C 
BRANCH  14  15
ATOM     15  C8  OHN d          47.198   2.993   7.582  0.00  0.00     0.007 C 
BRANCH  15  16
ATOM     16  C7  OHN d          48.314   1.963   7.496  0.00  0.00     0.000 C 
BRANCH  16  17
ATOM     17  C6  OHN d          48.774   1.566   8.902  0.00  0.00     0.000 C 
BRANCH  17  18
ATOM     18  C5  OHN d          48.154   0.222   9.252  0.00  0.00     0.000 C 
BRANCH  18  19
ATOM     19  C4  OHN d          47.291   0.362  10.486  0.00  0.00     0.000 C 
BRANCH  19  20
ATOM     20  C3  OHN d          47.576   1.686  11.169  0.00  0.00    -0.000 C 
BRANCH  20  21
ATOM     21  C2  OHN d          46.274   2.397  11.457  0.00  0.00    -0.005 C 
ATOM     22  C1  OHN d          45.215   1.342  11.620  0.00  0.00     0.005 C 
ENDBRANCH  20  21
ENDBRANCH  19  20
ENDBRANCH  18  19
ENDBRANCH  17  18
ENDBRANCH  16  17
ENDBRANCH  15  16
ENDBRANCH  14  15
ENDBRANCH   1  14
TORSDOF 11
ENDMDL
MODEL 17
REMARK VINA RESULT:      -4.5      3.255      4.994
REMARK  11 active torsions:
REMARK  status: ('A' for Active; 'I' for Inactive)
REMARK    1  A    between atoms: C3_3  and  C2_2 
REMARK    2  A    between atoms: C4_4  and  C3_3 
REMARK    3  A    between atoms: C5_5  and  C4_4 
REMARK    4  A    between atoms: C6_6  and  C5_5 
REMARK    5  A    between atoms: C7_7  and  C6_6 
REMARK    6  A    between atoms: C8_8  and  C7_7 
REMARK    7  A    between atoms: C9_9  and  C8_8 
REMARK    8  A    between atoms: C10_10  and  C9_9 
REMARK    9  A    between atoms: C11_12  and  C10_10 
REMARK   10  A    between atoms: C11_12  and  C12_13 
REMARK       I    between atoms: C12_13  and  N1_15 
REMARK   11  A    between atoms: C13_16  and  N1_15 
ROOT
ATOM      1  C10 OHN d          43.089   0.276  10.626  0.00  0.00     0.135 C 
ATOM      2  O1  OHN d          42.086   0.577  11.251  0.00  0.00    -0.297 OA
ENDROOT
BRANCH   1   3
ATOM      3  C11 OHN d          43.103  -0.876   9.677  0.00  0.00     0.181 C 
BRANCH   3   4
ATOM      4  C12 OHN d          41.763  -1.563   9.665  0.00  0.00     0.225 C 
ATOM      5  N1  OHN d          40.749  -0.996   9.025  0.00  0.00    -0.347 N 
ATOM      6  H19 OHN d          40.842  -0.103   8.565  0.00  0.00     0.163 HD
ATOM      7  O2  OHN d          41.664  -2.615  10.251  0.00  0.00    -0.273 OA
BRANCH   5   8
ATOM      8  C13 OHN d          39.513  -1.723   9.025  0.00  0.00     0.186 C 
ATOM      9  C14 OHN d          38.280  -0.895   9.381  0.00  0.00     0.062 C 
ATOM     10  C15 OHN d          37.136  -1.349   8.458  0.00  0.00     0.181 C 
ATOM     11  O4  OHN d          37.771  -1.990   7.366  0.00  0.00    -0.320 OA
ATOM     12  C16 OHN d          39.142  -2.216   7.679  0.00  0.00     0.281 C 
ATOM     13  O3  OHN d          39.901  -2.765   6.926  0.00  0.00    -0.263 OA
ENDBRANCH   5   8
ENDBRANCH   3   4
ENDBRANCH   1   3
BRANCH   1  14
ATOM     14  C9  OHN d          44.366   1.024  10.840  0.00  0.00     0.079 C 
BRANCH  14  15
ATOM     15  C8  OHN d          45.379   0.746   9.755  0.00  0.00     0.007 C 
BRANCH  15  16
ATOM     16  C7  OHN d          45.346   1.983   8.871  0.00  0.00     0.000 C 
BRANCH  16  17
ATOM     17  C6  OHN d          45.403   1.576   7.395  0.00  0.00     0.000 C 
BRANCH  17  18
ATOM     18  C5  OHN d          43.981   1.496   6.860  0.00  0.00     0.000 C 
BRANCH  18  19
ATOM     19  C4  OHN d          43.125   2.553   7.524  0.00  0.00     0.000 C 
BRANCH  19  20
ATOM     20  C3  OHN d          41.683   2.090   7.580  0.00  0.00    -0.000 C 
BRANCH  20  21
ATOM     21  C2  OHN d          40.983   2.758   8.741  0.00  0.00    -0.005 C 
ATOM     22  C1  OHN d          41.999   3.618   9.441  0.00  0.00     0.005 C 
ENDBRANCH  20  21
ENDBRANCH  19  20
ENDBRANCH  18  19
ENDBRANCH  17  18
ENDBRANCH  16  17
ENDBRANCH  15  16
ENDBRANCH  14  15
ENDBRANCH   1  14
TORSDOF 11
ENDMDL
MODEL 18
REMARK VINA RESULT:      -4.4      5.180      7.828
REMARK  11 active torsions:
REMARK  status: ('A' for Active; 'I' for Inactive)
REMARK    1  A    between atoms: C3_3  and  C2_2 
REMARK    2  A    between atoms: C4_4  and  C3_3 
REMARK    3  A    between atoms: C5_5  and  C4_4 
REMARK    4  A    between atoms: C6_6  and  C5_5 
REMARK    5  A    between atoms: C7_7  and  C6_6 
REMARK    6  A    between atoms: C8_8  and  C7_7 
REMARK    7  A    between atoms: C9_9  and  C8_8 
REMARK    8  A    between atoms: C10_10  and  C9_9 
REMARK    9  A    between atoms: C11_12  and  C10_10 
REMARK   10  A    between atoms: C11_12  and  C12_13 
REMARK       I    between atoms: C12_13  and  N1_15 
REMARK   11  A    between atoms: C13_16  and  N1_15 
ROOT
ATOM      1  C10 OHN d          45.042   1.125   8.259  0.00  0.00     0.135 C 
ATOM      2  O1  OHN d          44.502   1.193   7.169  0.00  0.00    -0.297 OA
ENDROOT
BRANCH   1   3
ATOM      3  C11 OHN d          44.482   0.285   9.359  0.00  0.00     0.181 C 
BRANCH   3   4
ATOM      4  C12 OHN d          42.984   0.430   9.420  0.00  0.00     0.225 C 
ATOM      5  N1  OHN d          42.252   0.039   8.385  0.00  0.00    -0.347 N 
ATOM      6  H19 OHN d          42.671  -0.332   7.545  0.00  0.00     0.163 HD
ATOM      7  O2  OHN d          42.505   0.907  10.421  0.00  0.00    -0.273 OA
BRANCH   5   8
ATOM      8  C13 OHN d          40.831   0.174   8.527  0.00  0.00     0.186 C 
ATOM      9  C14 OHN d          40.220   1.354   7.777  0.00  0.00     0.062 C 
ATOM     10  C15 OHN d          38.887   0.879   7.174  0.00  0.00     0.181 C 
ATOM     11  O4  OHN d          38.974  -0.534   7.146  0.00  0.00    -0.320 OA
ATOM     12  C16 OHN d          40.089  -0.957   7.925  0.00  0.00     0.281 C 
ATOM     13  O3  OHN d          40.374  -2.114   8.082  0.00  0.00    -0.263 OA
ENDBRANCH   5   8
ENDBRANCH   3   4
ENDBRANCH   1   3
BRANCH   1  14
ATOM     14  C9  OHN d          46.263   1.937   8.551  0.00  0.00     0.079 C 
BRANCH  14  15
ATOM     15  C8  OHN d          47.532   1.133   8.403  0.00  0.00     0.007 C 
BRANCH  15  16
ATOM     16  C7  OHN d          48.036   1.460   7.007  0.00  0.00     0.000 C 
BRANCH  16  17
ATOM     17  C6  OHN d          47.853   2.954   6.717  0.00  0.00     0.000 C 
BRANCH  17  18
ATOM     18  C5  OHN d          49.200   3.539   6.323  0.00  0.00     0.000 C 
BRANCH  18  19
ATOM     19  C4  OHN d          50.042   3.761   7.561  0.00  0.00     0.000 C 
BRANCH  19  20
ATOM     20  C3  OHN d          49.261   4.570   8.578  0.00  0.00    -0.000 C 
BRANCH  20  21
ATOM     21  C2  OHN d          49.433   3.958   9.950  0.00  0.00    -0.005 C 
ATOM     22  C1  OHN d          50.497   2.902   9.838  0.00  0.00     0.005 C 
ENDBRANCH  20  21
ENDBRANCH  19  20
ENDBRANCH  18  19
ENDBRANCH  17  18
ENDBRANCH  16  17
ENDBRANCH  15  16
ENDBRANCH  14  15
ENDBRANCH   1  14
TORSDOF 11
ENDMDL
MODEL 19
REMARK VINA RESULT:      -4.4      4.357      7.117
REMARK  11 active torsions:
REMARK  status: ('A' for Active; 'I' for Inactive)
REMARK    1  A    between atoms: C3_3  and  C2_2 
REMARK    2  A    between atoms: C4_4  and  C3_3 
REMARK    3  A    between atoms: C5_5  and  C4_4 
REMARK    4  A    between atoms: C6_6  and  C5_5 
REMARK    5  A    between atoms: C7_7  and  C6_6 
REMARK    6  A    between atoms: C8_8  and  C7_7 
REMARK    7  A    between atoms: C9_9  and  C8_8 
REMARK    8  A    between atoms: C10_10  and  C9_9 
REMARK    9  A    between atoms: C11_12  and  C10_10 
REMARK   10  A    between atoms: C11_12  and  C12_13 
REMARK       I    between atoms: C12_13  and  N1_15 
REMARK   11  A    between atoms: C13_16  and  N1_15 
ROOT
ATOM      1  C10 OHN d          44.513   1.117   9.050  0.00  0.00     0.135 C 
ATOM      2  O1  OHN d          44.616   0.090   9.699  0.00  0.00    -0.297 OA
ENDROOT
BRANCH   1   3
ATOM      3  C11 OHN d          43.897   1.126   7.691  0.00  0.00     0.181 C 
BRANCH   3   4
ATOM      4  C12 OHN d          42.401   0.983   7.790  0.00  0.00     0.225 C 
ATOM      5  N1  OHN d          41.886  -0.165   8.212  0.00  0.00    -0.347 N 
ATOM      6  H19 OHN d          42.468  -0.956   8.446  0.00  0.00     0.163 HD
ATOM      7  O2  OHN d          41.721   1.930   7.473  0.00  0.00    -0.273 OA
BRANCH   5   8
ATOM      8  C13 OHN d          40.456  -0.218   8.317  0.00  0.00     0.186 C 
ATOM      9  C14 OHN d          39.812  -1.449   7.684  0.00  0.00     0.062 C 
ATOM     10  C15 OHN d          38.677  -1.907   8.615  0.00  0.00     0.181 C 
ATOM     11  O4  OHN d          38.969  -1.326   9.873  0.00  0.00    -0.320 OA
ATOM     12  C16 OHN d          39.992  -0.346   9.716  0.00  0.00     0.281 C 
ATOM     13  O3  OHN d          40.411   0.311  10.631  0.00  0.00    -0.263 OA
ENDBRANCH   5   8
ENDBRANCH   3   4
ENDBRANCH   1   3
BRANCH   1  14
ATOM     14  C9  OHN d          45.061   2.404   9.579  0.00  0.00     0.079 C 
BRANCH  14  15
ATOM     15  C8  OHN d          45.311   3.411   8.483  0.00  0.00     0.007 C 
BRANCH  15  16
ATOM     16  C7  OHN d          46.819   3.405   8.291  0.00  0.00     0.000 C 
BRANCH  16  17
ATOM     17  C6  OHN d          47.175   2.797   6.930  0.00  0.00     0.000 C 
BRANCH  17  18
ATOM     18  C5  OHN d          47.913   1.488   7.165  0.00  0.00     0.000 C 
BRANCH  18  19
ATOM     19  C4  OHN d          48.473   1.462   8.570  0.00  0.00     0.000 C 
BRANCH  19  20
ATOM     20  C3  OHN d          48.140   0.140   9.234  0.00  0.00    -0.000 C 
BRANCH  20  21
ATOM     21  C2  OHN d          47.980   0.348  10.722  0.00  0.00    -0.005 C 
ATOM     22  C1  OHN d          48.569   1.692  11.051  0.00  0.00     0.005 C 
ENDBRANCH  20  21
ENDBRANCH  19  20
ENDBRANCH  18  19
ENDBRANCH  17  18
ENDBRANCH  16  17
ENDBRANCH  15  16
ENDBRANCH  14  15
ENDBRANCH   1  14
TORSDOF 11
ENDMDL
MODEL 20
REMARK VINA RESULT:      -4.4      3.521      5.657
REMARK  11 active torsions:
REMARK  status: ('A' for Active; 'I' for Inactive)
REMARK    1  A    between atoms: C3_3  and  C2_2 
REMARK    2  A    between atoms: C4_4  and  C3_3 
REMARK    3  A    between atoms: C5_5  and  C4_4 
REMARK    4  A    between atoms: C6_6  and  C5_5 
REMARK    5  A    between atoms: C7_7  and  C6_6 
REMARK    6  A    between atoms: C8_8  and  C7_7 
REMARK    7  A    between atoms: C9_9  and  C8_8 
REMARK    8  A    between atoms: C10_10  and  C9_9 
REMARK    9  A    between atoms: C11_12  and  C10_10 
REMARK   10  A    between atoms: C11_12  and  C12_13 
REMARK       I    between atoms: C12_13  and  N1_15 
REMARK   11  A    between atoms: C13_16  and  N1_15 
ROOT
ATOM      1  C10 OHN d          42.926   0.189   8.974  0.00  0.00     0.135 C 
ATOM      2  O1  OHN d          42.630  -0.749   9.694  0.00  0.00    -0.297 OA
ENDROOT
BRANCH   1   3
ATOM      3  C11 OHN d          41.907   0.879   8.129  0.00  0.00     0.181 C 
BRANCH   3   4
ATOM      4  C12 OHN d          40.583   0.166   8.215  0.00  0.00     0.225 C 
ATOM      5  N1  OHN d          40.500  -1.099   7.822  0.00  0.00    -0.347 N 
ATOM      6  H19 OHN d          41.296  -1.592   7.444  0.00  0.00     0.163 HD
ATOM      7  O2  OHN d          39.636   0.784   8.640  0.00  0.00    -0.273 OA
BRANCH   5   8
ATOM      8  C13 OHN d          39.218  -1.725   7.966  0.00  0.00     0.186 C 
ATOM      9  C14 OHN d          38.780  -2.572   6.773  0.00  0.00     0.062 C 
ATOM     10  C15 OHN d          38.099  -3.835   7.328  0.00  0.00     0.181 C 
ATOM     11  O4  OHN d          38.550  -3.944   8.666  0.00  0.00    -0.320 OA
ATOM     12  C16 OHN d          39.195  -2.733   9.050  0.00  0.00     0.281 C 
ATOM     13  O3  OHN d          39.652  -2.558  10.147  0.00  0.00    -0.263 OA
ENDBRANCH   5   8
ENDBRANCH   3   4
ENDBRANCH   1   3
BRANCH   1  14
ATOM     14  C9  OHN d          44.346   0.644   8.871  0.00  0.00     0.079 C 
BRANCH  14  15
ATOM     15  C8  OHN d          44.557   2.004   9.491  0.00  0.00     0.007 C 
BRANCH  15  16
ATOM     16  C7  OHN d          44.996   2.891   8.337  0.00  0.00     0.000 C 
BRANCH  16  17
ATOM     17  C6  OHN d          45.608   2.039   7.221  0.00  0.00     0.000 C 
BRANCH  17  18
ATOM     18  C5  OHN d          47.007   2.559   6.927  0.00  0.00     0.000 C 
BRANCH  18  19
ATOM     19  C4  OHN d          48.033   1.527   7.340  0.00  0.00     0.000 C 
BRANCH  19  20
ATOM     20  C3  OHN d          48.770   1.998   8.579  0.00  0.00    -0.000 C 
BRANCH  20  21
ATOM     21  C2  OHN d          48.192   1.318   9.799  0.00  0.00    -0.005 C 
ATOM     22  C1  OHN d          47.984  -0.129   9.448  0.00  0.00     0.005 C 
ENDBRANCH  20  21
ENDBRANCH  19  20
ENDBRANCH  18  19
ENDBRANCH  17  18
ENDBRANCH  16  17
ENDBRANCH  15  16
ENDBRANCH  14  15
ENDBRANCH   1  14
TORSDOF 11
ENDMDL
