MODEL 1
REMARK VINA RESULT:      -8.2      0.000      0.000
REMARK  11 active torsions:
REMARK  status: ('A' for Active; 'I' for Inactive)
REMARK    1  A    between atoms: C3_3  and  C2_2 
REMARK    2  A    between atoms: C4_4  and  C3_3 
REMARK    3  A    between atoms: C5_5  and  C4_4 
REMARK    4  A    between atoms: C6_6  and  C5_5 
REMARK    5  A    between atoms: C7_7  and  C6_6 
REMARK    6  A    between atoms: C8_8  and  C7_7 
REMARK    7  A    between atoms: C9_9  and  C8_8 
REMARK    8  A    between atoms: C10_10  and  C9_9 
REMARK    9  A    between atoms: C11_12  and  C10_10 
REMARK   10  A    between atoms: C11_12  and  C12_13 
REMARK       I    between atoms: C12_13  and  N1_15 
REMARK   11  A    between atoms: C13_16  and  N1_15 
ROOT
ATOM      1  C10 OHN d          39.438  17.499  -0.977  0.00  0.00     0.135 C 
ATOM      2  O1  OHN d          39.748  18.215  -1.914  0.00  0.00    -0.297 OA
ENDROOT
BRANCH   1   3
ATOM      3  C11 OHN d          38.587  17.999   0.142  0.00  0.00     0.181 C 
BRANCH   3   4
ATOM      4  C12 OHN d          38.362  19.483   0.008  0.00  0.00     0.225 C 
ATOM      5  N1  OHN d          39.408  20.298  -0.007  0.00  0.00    -0.347 N 
ATOM      6  H19 OHN d          40.353  19.956   0.092  0.00  0.00     0.163 HD
ATOM      7  O2  OHN d          37.222  19.875  -0.076  0.00  0.00    -0.273 OA
BRANCH   5   8
ATOM      8  C13 OHN d          39.122  21.694  -0.173  0.00  0.00     0.186 C 
ATOM      9  C14 OHN d          39.401  22.557   1.055  0.00  0.00     0.062 C 
ATOM     10  C15 OHN d          40.021  23.876   0.562  0.00  0.00     0.181 C 
ATOM     11  O4  OHN d          40.512  23.594  -0.736  0.00  0.00    -0.320 OA
ATOM     12  C16 OHN d          39.999  22.340  -1.176  0.00  0.00     0.281 C 
ATOM     13  O3  OHN d          40.247  21.877  -2.256  0.00  0.00    -0.263 OA
ENDBRANCH   5   8
ENDBRANCH   3   4
ENDBRANCH   1   3
BRANCH   1  14
ATOM     14  C9  OHN d          39.956  16.099  -0.891  0.00  0.00     0.079 C 
BRANCH  14  15
ATOM     15  C8  OHN d          40.148  15.477  -2.253  0.00  0.00     0.007 C 
BRANCH  15  16
ATOM     16  C7  OHN d          41.611  15.063  -2.285  0.00  0.00     0.000 C 
BRANCH  16  17
ATOM     17  C6  OHN d          41.905  14.077  -1.148  0.00  0.00     0.000 C 
BRANCH  17  18
ATOM     18  C5  OHN d          41.558  12.675  -1.624  0.00  0.00     0.000 C 
BRANCH  18  19
ATOM     19  C4  OHN d          40.907  11.900  -0.499  0.00  0.00     0.000 C 
BRANCH  19  20
ATOM     20  C3  OHN d          40.759  12.787   0.722  0.00  0.00    -0.000 C 
BRANCH  20  21
ATOM     21  C2  OHN d          40.493  11.931   1.939  0.00  0.00    -0.005 C 
ATOM     22  C1  OHN d          41.044  10.562   1.651  0.00  0.00     0.005 C 
ENDBRANCH  20  21
ENDBRANCH  19  20
ENDBRANCH  18  19
ENDBRANCH  17  18
ENDBRANCH  16  17
ENDBRANCH  15  16
ENDBRANCH  14  15
ENDBRANCH   1  14
TORSDOF 11
ENDMDL
MODEL 2
REMARK VINA RESULT:      -7.8      0.952      1.215
REMARK  11 active torsions:
REMARK  status: ('A' for Active; 'I' for Inactive)
REMARK    1  A    between atoms: C3_3  and  C2_2 
REMARK    2  A    between atoms: C4_4  and  C3_3 
REMARK    3  A    between atoms: C5_5  and  C4_4 
REMARK    4  A    between atoms: C6_6  and  C5_5 
REMARK    5  A    between atoms: C7_7  and  C6_6 
REMARK    6  A    between atoms: C8_8  and  C7_7 
REMARK    7  A    between atoms: C9_9  and  C8_8 
REMARK    8  A    between atoms: C10_10  and  C9_9 
REMARK    9  A    between atoms: C11_12  and  C10_10 
REMARK   10  A    between atoms: C11_12  and  C12_13 
REMARK       I    between atoms: C12_13  and  N1_15 
REMARK   11  A    between atoms: C13_16  and  N1_15 
ROOT
ATOM      1  C10 OHN d          40.035  17.374  -2.462  0.00  0.00     0.135 C 
ATOM      2  O1  OHN d          40.142  18.385  -3.136  0.00  0.00    -0.297 OA
ENDROOT
BRANCH   1   3
ATOM      3  C11 OHN d          39.503  17.415  -1.068  0.00  0.00     0.181 C 
BRANCH   3   4
ATOM      4  C12 OHN d          38.952  18.783  -0.756  0.00  0.00     0.225 C 
ATOM      5  N1  OHN d          39.774  19.824  -0.738  0.00  0.00    -0.347 N 
ATOM      6  H19 OHN d          40.765  19.724  -0.905  0.00  0.00     0.163 HD
ATOM      7  O2  OHN d          37.770  18.875  -0.527  0.00  0.00    -0.273 OA
BRANCH   5   8
ATOM      8  C13 OHN d          39.176  21.099  -0.470  0.00  0.00     0.186 C 
ATOM      9  C14 OHN d          39.245  21.547   0.989  0.00  0.00     0.062 C 
ATOM     10  C15 OHN d          39.547  23.055   0.996  0.00  0.00     0.181 C 
ATOM     11  O4  OHN d          40.094  23.331  -0.281  0.00  0.00    -0.320 OA
ATOM     12  C16 OHN d          39.884  22.213  -1.139  0.00  0.00     0.281 C 
ATOM     13  O3  OHN d          40.236  22.199  -2.288  0.00  0.00    -0.263 OA
ENDBRANCH   5   8
ENDBRANCH   3   4
ENDBRANCH   1   3
BRANCH   1  14
ATOM     14  C9  OHN d          40.495  16.056  -2.998  0.00  0.00     0.079 C 
BRANCH  14  15
ATOM     15  C8  OHN d          40.416  14.960  -1.963  0.00  0.00     0.007 C 
BRANCH  15  16
ATOM     16  C7  OHN d          41.859  14.541  -1.732  0.00  0.00     0.000 C 
BRANCH  16  17
ATOM     17  C6  OHN d          41.924  13.431  -0.679  0.00  0.00     0.000 C 
BRANCH  17  18
ATOM     18  C5  OHN d          40.922  12.350  -1.054  0.00  0.00     0.000 C 
BRANCH  18  19
ATOM     19  C4  OHN d          40.679  11.444   0.133  0.00  0.00     0.000 C 
BRANCH  19  20
ATOM     20  C3  OHN d          40.745  12.246   1.418  0.00  0.00    -0.000 C 
BRANCH  20  21
ATOM     21  C2  OHN d          40.724  11.307   2.602  0.00  0.00    -0.005 C 
ATOM     22  C1  OHN d          40.158  12.070   3.768  0.00  0.00     0.005 C 
ENDBRANCH  20  21
ENDBRANCH  19  20
ENDBRANCH  18  19
ENDBRANCH  17  18
ENDBRANCH  16  17
ENDBRANCH  15  16
ENDBRANCH  14  15
ENDBRANCH   1  14
TORSDOF 11
ENDMDL
MODEL 3
REMARK VINA RESULT:      -7.8      3.494      8.827
REMARK  11 active torsions:
REMARK  status: ('A' for Active; 'I' for Inactive)
REMARK    1  A    between atoms: C3_3  and  C2_2 
REMARK    2  A    between atoms: C4_4  and  C3_3 
REMARK    3  A    between atoms: C5_5  and  C4_4 
REMARK    4  A    between atoms: C6_6  and  C5_5 
REMARK    5  A    between atoms: C7_7  and  C6_6 
REMARK    6  A    between atoms: C8_8  and  C7_7 
REMARK    7  A    between atoms: C9_9  and  C8_8 
REMARK    8  A    between atoms: C10_10  and  C9_9 
REMARK    9  A    between atoms: C11_12  and  C10_10 
REMARK   10  A    between atoms: C11_12  and  C12_13 
REMARK       I    between atoms: C12_13  and  N1_15 
REMARK   11  A    between atoms: C13_16  and  N1_15 
ROOT
ATOM      1  C10 OHN d          39.475  15.373  -1.279  0.00  0.00     0.135 C 
ATOM      2  O1  OHN d          38.360  14.883  -1.314  0.00  0.00    -0.297 OA
ENDROOT
BRANCH   1   3
ATOM      3  C11 OHN d          40.683  14.604  -1.701  0.00  0.00     0.181 C 
BRANCH   3   4
ATOM      4  C12 OHN d          41.210  13.782  -0.554  0.00  0.00     0.225 C 
ATOM      5  N1  OHN d          40.353  13.194   0.270  0.00  0.00    -0.347 N 
ATOM      6  H19 OHN d          39.354  13.301   0.166  0.00  0.00     0.163 HD
ATOM      7  O2  OHN d          42.409  13.695  -0.427  0.00  0.00    -0.273 OA
BRANCH   5   8
ATOM      8  C13 OHN d          40.925  12.399   1.318  0.00  0.00     0.186 C 
ATOM      9  C14 OHN d          40.170  12.446   2.645  0.00  0.00     0.062 C 
ATOM     10  C15 OHN d          40.172  11.022   3.228  0.00  0.00     0.181 C 
ATOM     11  O4  OHN d          40.442  10.170   2.130  0.00  0.00    -0.320 OA
ATOM     12  C16 OHN d          40.882  10.949   1.021  0.00  0.00     0.281 C 
ATOM     13  O3  OHN d          41.196  10.464  -0.032  0.00  0.00    -0.263 OA
ENDBRANCH   5   8
ENDBRANCH   3   4
ENDBRANCH   1   3
BRANCH   1  14
ATOM     14  C9  OHN d          39.676  16.756  -0.748  0.00  0.00     0.079 C 
BRANCH  14  15
ATOM     15  C8  OHN d          39.827  17.775  -1.851  0.00  0.00     0.007 C 
BRANCH  15  16
ATOM     16  C7  OHN d          39.283  19.067  -1.261  0.00  0.00     0.000 C 
BRANCH  16  17
ATOM     17  C6  OHN d          38.401  18.760  -0.046  0.00  0.00     0.000 C 
BRANCH  17  18
ATOM     18  C5  OHN d          38.172  20.052   0.723  0.00  0.00     0.000 C 
BRANCH  18  19
ATOM     19  C4  OHN d          38.938  21.179   0.068  0.00  0.00     0.000 C 
BRANCH  19  20
ATOM     20  C3  OHN d          39.409  22.165   1.120  0.00  0.00    -0.000 C 
BRANCH  20  21
ATOM     21  C2  OHN d          39.948  23.405   0.445  0.00  0.00    -0.005 C 
ATOM     22  C1  OHN d          40.378  23.010  -0.941  0.00  0.00     0.005 C 
ENDBRANCH  20  21
ENDBRANCH  19  20
ENDBRANCH  18  19
ENDBRANCH  17  18
ENDBRANCH  16  17
ENDBRANCH  15  16
ENDBRANCH  14  15
ENDBRANCH   1  14
TORSDOF 11
ENDMDL
MODEL 4
REMARK VINA RESULT:      -7.6      0.908      1.778
REMARK  11 active torsions:
REMARK  status: ('A' for Active; 'I' for Inactive)
REMARK    1  A    between atoms: C3_3  and  C2_2 
REMARK    2  A    between atoms: C4_4  and  C3_3 
REMARK    3  A    between atoms: C5_5  and  C4_4 
REMARK    4  A    between atoms: C6_6  and  C5_5 
REMARK    5  A    between atoms: C7_7  and  C6_6 
REMARK    6  A    between atoms: C8_8  and  C7_7 
REMARK    7  A    between atoms: C9_9  and  C8_8 
REMARK    8  A    between atoms: C10_10  and  C9_9 
REMARK    9  A    between atoms: C11_12  and  C10_10 
REMARK   10  A    between atoms: C11_12  and  C12_13 
REMARK       I    between atoms: C12_13  and  N1_15 
REMARK   11  A    between atoms: C13_16  and  N1_15 
ROOT
ATOM      1  C10 OHN d          39.447  17.634  -1.186  0.00  0.00     0.135 C 
ATOM      2  O1  OHN d          39.730  18.414  -2.078  0.00  0.00    -0.297 OA
ENDROOT
BRANCH   1   3
ATOM      3  C11 OHN d          38.654  18.061   0.005  0.00  0.00     0.181 C 
BRANCH   3   4
ATOM      4  C12 OHN d          38.408  19.547  -0.033  0.00  0.00     0.225 C 
ATOM      5  N1  OHN d          39.444  20.375  -0.062  0.00  0.00    -0.347 N 
ATOM      6  H19 OHN d          40.396  20.039  -0.036  0.00  0.00     0.163 HD
ATOM      7  O2  OHN d          37.261  19.928  -0.030  0.00  0.00    -0.273 OA
BRANCH   5   8
ATOM      8  C13 OHN d          39.135  21.774  -0.134  0.00  0.00     0.186 C 
ATOM      9  C14 OHN d          39.466  22.569   1.127  0.00  0.00     0.062 C 
ATOM     10  C15 OHN d          40.047  23.922   0.680  0.00  0.00     0.181 C 
ATOM     11  O4  OHN d          40.476  23.721  -0.654  0.00  0.00    -0.320 OA
ATOM     12  C16 OHN d          39.954  22.487  -1.140  0.00  0.00     0.281 C 
ATOM     13  O3  OHN d          40.154  22.089  -2.256  0.00  0.00    -0.263 OA
ENDBRANCH   5   8
ENDBRANCH   3   4
ENDBRANCH   1   3
BRANCH   1  14
ATOM     14  C9  OHN d          39.942  16.224  -1.229  0.00  0.00     0.079 C 
BRANCH  14  15
ATOM     15  C8  OHN d          39.949  15.663  -2.630  0.00  0.00     0.007 C 
BRANCH  15  16
ATOM     16  C7  OHN d          39.054  14.436  -2.559  0.00  0.00     0.000 C 
BRANCH  16  17
ATOM     17  C6  OHN d          38.547  14.236  -1.127  0.00  0.00     0.000 C 
BRANCH  17  18
ATOM     18  C5  OHN d          38.804  12.793  -0.721  0.00  0.00     0.000 C 
BRANCH  18  19
ATOM     19  C4  OHN d          40.146  12.687  -0.032  0.00  0.00     0.000 C 
BRANCH  19  20
ATOM     20  C3  OHN d          41.025  11.690  -0.762  0.00  0.00    -0.000 C 
BRANCH  20  21
ATOM     21  C2  OHN d          41.962  12.427  -1.691  0.00  0.00    -0.005 C 
ATOM     22  C1  OHN d          42.388  13.687  -0.988  0.00  0.00     0.005 C 
ENDBRANCH  20  21
ENDBRANCH  19  20
ENDBRANCH  18  19
ENDBRANCH  17  18
ENDBRANCH  16  17
ENDBRANCH  15  16
ENDBRANCH  14  15
ENDBRANCH   1  14
TORSDOF 11
ENDMDL
MODEL 5
REMARK VINA RESULT:      -7.5      1.933      3.477
REMARK  11 active torsions:
REMARK  status: ('A' for Active; 'I' for Inactive)
REMARK    1  A    between atoms: C3_3  and  C2_2 
REMARK    2  A    between atoms: C4_4  and  C3_3 
REMARK    3  A    between atoms: C5_5  and  C4_4 
REMARK    4  A    between atoms: C6_6  and  C5_5 
REMARK    5  A    between atoms: C7_7  and  C6_6 
REMARK    6  A    between atoms: C8_8  and  C7_7 
REMARK    7  A    between atoms: C9_9  and  C8_8 
REMARK    8  A    between atoms: C10_10  and  C9_9 
REMARK    9  A    between atoms: C11_12  and  C10_10 
REMARK   10  A    between atoms: C11_12  and  C12_13 
REMARK       I    between atoms: C12_13  and  N1_15 
REMARK   11  A    between atoms: C13_16  and  N1_15 
ROOT
ATOM      1  C10 OHN d          38.777  14.225  -1.926  0.00  0.00     0.135 C 
ATOM      2  O1  OHN d          38.976  14.361  -3.121  0.00  0.00    -0.297 OA
ENDROOT
BRANCH   1   3
ATOM      3  C11 OHN d          37.945  15.196  -1.157  0.00  0.00     0.181 C 
BRANCH   3   4
ATOM      4  C12 OHN d          38.761  16.405  -0.780  0.00  0.00     0.225 C 
ATOM      5  N1  OHN d          38.167  17.588  -0.696  0.00  0.00    -0.347 N 
ATOM      6  H19 OHN d          37.186  17.708  -0.901  0.00  0.00     0.163 HD
ATOM      7  O2  OHN d          39.941  16.246  -0.572  0.00  0.00    -0.273 OA
BRANCH   5   8
ATOM      8  C13 OHN d          38.997  18.688  -0.299  0.00  0.00     0.186 C 
ATOM      9  C14 OHN d          39.639  19.457  -1.451  0.00  0.00     0.062 C 
ATOM     10  C15 OHN d          39.589  20.953  -1.093  0.00  0.00     0.181 C 
ATOM     11  O4  OHN d          38.583  21.065  -0.103  0.00  0.00    -0.320 OA
ATOM     12  C16 OHN d          38.234  19.767   0.368  0.00  0.00     0.281 C 
ATOM     13  O3  OHN d          37.415  19.584   1.229  0.00  0.00    -0.263 OA
ENDBRANCH   5   8
ENDBRANCH   3   4
ENDBRANCH   1   3
BRANCH   1  14
ATOM     14  C9  OHN d          39.417  13.102  -1.176  0.00  0.00     0.079 C 
BRANCH  14  15
ATOM     15  C8  OHN d          40.855  12.889  -1.584  0.00  0.00     0.007 C 
BRANCH  15  16
ATOM     16  C7  OHN d          41.284  11.634  -0.840  0.00  0.00     0.000 C 
BRANCH  16  17
ATOM     17  C6  OHN d          40.334  11.364   0.331  0.00  0.00     0.000 C 
BRANCH  17  18
ATOM     18  C5  OHN d          40.981  10.341   1.253  0.00  0.00     0.000 C 
BRANCH  18  19
ATOM     19  C4  OHN d          41.204  10.952   2.618  0.00  0.00     0.000 C 
BRANCH  19  20
ATOM     20  C3  OHN d          40.366  12.207   2.767  0.00  0.00    -0.000 C 
BRANCH  20  21
ATOM     21  C2  OHN d          39.820  12.287   4.174  0.00  0.00    -0.005 C 
ATOM     22  C1  OHN d          38.997  11.050   4.405  0.00  0.00     0.005 C 
ENDBRANCH  20  21
ENDBRANCH  19  20
ENDBRANCH  18  19
ENDBRANCH  17  18
ENDBRANCH  16  17
ENDBRANCH  15  16
ENDBRANCH  14  15
ENDBRANCH   1  14
TORSDOF 11
ENDMDL
MODEL 6
REMARK VINA RESULT:      -7.5      3.096      8.566
REMARK  11 active torsions:
REMARK  status: ('A' for Active; 'I' for Inactive)
REMARK    1  A    between atoms: C3_3  and  C2_2 
REMARK    2  A    between atoms: C4_4  and  C3_3 
REMARK    3  A    between atoms: C5_5  and  C4_4 
REMARK    4  A    between atoms: C6_6  and  C5_5 
REMARK    5  A    between atoms: C7_7  and  C6_6 
REMARK    6  A    between atoms: C8_8  and  C7_7 
REMARK    7  A    between atoms: C9_9  and  C8_8 
REMARK    8  A    between atoms: C10_10  and  C9_9 
REMARK    9  A    between atoms: C11_12  and  C10_10 
REMARK   10  A    between atoms: C11_12  and  C12_13 
REMARK       I    between atoms: C12_13  and  N1_15 
REMARK   11  A    between atoms: C13_16  and  N1_15 
ROOT
ATOM      1  C10 OHN d          40.274  16.703  -2.852  0.00  0.00     0.135 C 
ATOM      2  O1  OHN d          40.694  17.342  -3.802  0.00  0.00    -0.297 OA
ENDROOT
BRANCH   1   3
ATOM      3  C11 OHN d          39.980  15.244  -2.960  0.00  0.00     0.181 C 
BRANCH   3   4
ATOM      4  C12 OHN d          40.818  14.464  -1.981  0.00  0.00     0.225 C 
ATOM      5  N1  OHN d          40.221  13.645  -1.125  0.00  0.00    -0.347 N 
ATOM      6  H19 OHN d          39.217  13.546  -1.094  0.00  0.00     0.163 HD
ATOM      7  O2  OHN d          42.015  14.623  -2.012  0.00  0.00    -0.273 OA
BRANCH   5   8
ATOM      8  C13 OHN d          41.083  12.909  -0.246  0.00  0.00     0.186 C 
ATOM      9  C14 OHN d          40.507  12.643   1.144  0.00  0.00     0.062 C 
ATOM     10  C15 OHN d          40.902  11.211   1.541  0.00  0.00     0.181 C 
ATOM     11  O4  OHN d          41.219  10.560   0.324  0.00  0.00    -0.320 OA
ATOM     12  C16 OHN d          41.330  11.527  -0.716  0.00  0.00     0.281 C 
ATOM     13  O3  OHN d          41.612  11.238  -1.848  0.00  0.00    -0.263 OA
ENDBRANCH   5   8
ENDBRANCH   3   4
ENDBRANCH   1   3
BRANCH   1  14
ATOM     14  C9  OHN d          39.982  17.382  -1.553  0.00  0.00     0.079 C 
BRANCH  14  15
ATOM     15  C8  OHN d          39.635  18.840  -1.736  0.00  0.00     0.007 C 
BRANCH  15  16
ATOM     16  C7  OHN d          38.331  19.024  -0.975  0.00  0.00     0.000 C 
BRANCH  16  17
ATOM     17  C6  OHN d          38.577  18.887   0.532  0.00  0.00     0.000 C 
BRANCH  17  18
ATOM     18  C5  OHN d          38.236  20.210   1.199  0.00  0.00     0.000 C 
BRANCH  18  19
ATOM     19  C4  OHN d          38.668  21.357   0.312  0.00  0.00     0.000 C 
BRANCH  19  20
ATOM     20  C3  OHN d          39.463  22.364   1.120  0.00  0.00    -0.000 C 
BRANCH  20  21
ATOM     21  C2  OHN d          40.164  23.323   0.185  0.00  0.00    -0.005 C 
ATOM     22  C1  OHN d          40.539  22.548  -1.049  0.00  0.00     0.005 C 
ENDBRANCH  20  21
ENDBRANCH  19  20
ENDBRANCH  18  19
ENDBRANCH  17  18
ENDBRANCH  16  17
ENDBRANCH  15  16
ENDBRANCH  14  15
ENDBRANCH   1  14
TORSDOF 11
ENDMDL
MODEL 7
REMARK VINA RESULT:      -7.4      3.718      8.803
REMARK  11 active torsions:
REMARK  status: ('A' for Active; 'I' for Inactive)
REMARK    1  A    between atoms: C3_3  and  C2_2 
REMARK    2  A    between atoms: C4_4  and  C3_3 
REMARK    3  A    between atoms: C5_5  and  C4_4 
REMARK    4  A    between atoms: C6_6  and  C5_5 
REMARK    5  A    between atoms: C7_7  and  C6_6 
REMARK    6  A    between atoms: C8_8  and  C7_7 
REMARK    7  A    between atoms: C9_9  and  C8_8 
REMARK    8  A    between atoms: C10_10  and  C9_9 
REMARK    9  A    between atoms: C11_12  and  C10_10 
REMARK   10  A    between atoms: C11_12  and  C12_13 
REMARK       I    between atoms: C12_13  and  N1_15 
REMARK   11  A    between atoms: C13_16  and  N1_15 
ROOT
ATOM      1  C10 OHN d          39.372  15.096  -1.470  0.00  0.00     0.135 C 
ATOM      2  O1  OHN d          38.221  14.953  -1.097  0.00  0.00    -0.297 OA
ENDROOT
BRANCH   1   3
ATOM      3  C11 OHN d          40.244  13.926  -1.785  0.00  0.00     0.181 C 
BRANCH   3   4
ATOM      4  C12 OHN d          40.868  13.382  -0.527  0.00  0.00     0.225 C 
ATOM      5  N1  OHN d          40.098  12.783   0.372  0.00  0.00    -0.347 N 
ATOM      6  H19 OHN d          39.099  12.703   0.250  0.00  0.00     0.163 HD
ATOM      7  O2  OHN d          42.060  13.518  -0.384  0.00  0.00    -0.273 OA
BRANCH   5   8
ATOM      8  C13 OHN d          40.765  12.258   1.529  0.00  0.00     0.186 C 
ATOM      9  C14 OHN d          40.042  12.501   2.852  0.00  0.00     0.062 C 
ATOM     10  C15 OHN d          40.186  11.224   3.698  0.00  0.00     0.181 C 
ATOM     11  O4  OHN d          40.503  10.199   2.774  0.00  0.00    -0.320 OA
ATOM     12  C16 OHN d          40.843  10.780   1.518  0.00  0.00     0.281 C 
ATOM     13  O3  OHN d          41.172  10.126   0.565  0.00  0.00    -0.263 OA
ENDBRANCH   5   8
ENDBRANCH   3   4
ENDBRANCH   1   3
BRANCH   1  14
ATOM     14  C9  OHN d          39.972  16.462  -1.565  0.00  0.00     0.079 C 
BRANCH  14  15
ATOM     15  C8  OHN d          40.459  16.776  -2.959  0.00  0.00     0.007 C 
BRANCH  15  16
ATOM     16  C7  OHN d          40.089  18.235  -3.178  0.00  0.00     0.000 C 
BRANCH  16  17
ATOM     17  C6  OHN d          39.772  18.905  -1.836  0.00  0.00     0.000 C 
BRANCH  17  18
ATOM     18  C5  OHN d          40.314  20.326  -1.867  0.00  0.00     0.000 C 
BRANCH  18  19
ATOM     19  C4  OHN d          39.536  21.190  -0.899  0.00  0.00     0.000 C 
BRANCH  19  20
ATOM     20  C3  OHN d          39.977  22.635  -1.026  0.00  0.00    -0.000 C 
BRANCH  20  21
ATOM     21  C2  OHN d          39.651  23.377   0.250  0.00  0.00    -0.005 C 
ATOM     22  C1  OHN d          39.860  22.418   1.390  0.00  0.00     0.005 C 
ENDBRANCH  20  21
ENDBRANCH  19  20
ENDBRANCH  18  19
ENDBRANCH  17  18
ENDBRANCH  16  17
ENDBRANCH  15  16
ENDBRANCH  14  15
ENDBRANCH   1  14
TORSDOF 11
ENDMDL
MODEL 8
REMARK VINA RESULT:      -7.4      2.416      4.588
REMARK  11 active torsions:
REMARK  status: ('A' for Active; 'I' for Inactive)
REMARK    1  A    between atoms: C3_3  and  C2_2 
REMARK    2  A    between atoms: C4_4  and  C3_3 
REMARK    3  A    between atoms: C5_5  and  C4_4 
REMARK    4  A    between atoms: C6_6  and  C5_5 
REMARK    5  A    between atoms: C7_7  and  C6_6 
REMARK    6  A    between atoms: C8_8  and  C7_7 
REMARK    7  A    between atoms: C9_9  and  C8_8 
REMARK    8  A    between atoms: C10_10  and  C9_9 
REMARK    9  A    between atoms: C11_12  and  C10_10 
REMARK   10  A    between atoms: C11_12  and  C12_13 
REMARK       I    between atoms: C12_13  and  N1_15 
REMARK   11  A    between atoms: C13_16  and  N1_15 
ROOT
ATOM      1  C10 OHN d          41.586  13.032  -1.501  0.00  0.00     0.135 C 
ATOM      2  O1  OHN d          41.798  12.054  -2.197  0.00  0.00    -0.297 OA
ENDROOT
BRANCH   1   3
ATOM      3  C11 OHN d          41.943  14.408  -1.957  0.00  0.00     0.181 C 
BRANCH   3   4
ATOM      4  C12 OHN d          40.718  15.284  -1.992  0.00  0.00     0.225 C 
ATOM      5  N1  OHN d          40.646  16.331  -1.181  0.00  0.00    -0.347 N 
ATOM      6  H19 OHN d          41.379  16.546  -0.521  0.00  0.00     0.163 HD
ATOM      7  O2  OHN d          39.837  14.991  -2.766  0.00  0.00    -0.273 OA
BRANCH   5   8
ATOM      8  C13 OHN d          39.467  17.141  -1.294  0.00  0.00     0.186 C 
ATOM      9  C14 OHN d          38.915  17.660   0.032  0.00  0.00     0.062 C 
ATOM     10  C15 OHN d          38.452  19.109  -0.196  0.00  0.00     0.181 C 
ATOM     11  O4  OHN d          39.128  19.537  -1.365  0.00  0.00    -0.320 OA
ATOM     12  C16 OHN d          39.716  18.411  -2.012  0.00  0.00     0.281 C 
ATOM     13  O3  OHN d          40.332  18.499  -3.040  0.00  0.00    -0.263 OA
ENDBRANCH   5   8
ENDBRANCH   3   4
ENDBRANCH   1   3
BRANCH   1  14
ATOM     14  C9  OHN d          41.011  12.875  -0.131  0.00  0.00     0.079 C 
BRANCH  14  15
ATOM     15  C8  OHN d          39.611  12.311  -0.160  0.00  0.00     0.007 C 
BRANCH  15  16
ATOM     16  C7  OHN d          39.666  11.092   0.747  0.00  0.00     0.000 C 
BRANCH  16  17
ATOM     17  C6  OHN d          41.079  10.497   0.745  0.00  0.00     0.000 C 
BRANCH  17  18
ATOM     18  C5  OHN d          41.440  10.106   2.169  0.00  0.00     0.000 C 
BRANCH  18  19
ATOM     19  C4  OHN d          40.316  10.490   3.106  0.00  0.00     0.000 C 
BRANCH  19  20
ATOM     20  C3  OHN d          40.591  11.853   3.712  0.00  0.00    -0.000 C 
BRANCH  20  21
ATOM     21  C2  OHN d          39.397  12.292   4.528  0.00  0.00    -0.005 C 
ATOM     22  C1  OHN d          38.457  11.122   4.611  0.00  0.00     0.005 C 
ENDBRANCH  20  21
ENDBRANCH  19  20
ENDBRANCH  18  19
ENDBRANCH  17  18
ENDBRANCH  16  17
ENDBRANCH  15  16
ENDBRANCH  14  15
ENDBRANCH   1  14
TORSDOF 11
ENDMDL
MODEL 9
REMARK VINA RESULT:      -7.4      3.686      8.965
REMARK  11 active torsions:
REMARK  status: ('A' for Active; 'I' for Inactive)
REMARK    1  A    between atoms: C3_3  and  C2_2 
REMARK    2  A    between atoms: C4_4  and  C3_3 
REMARK    3  A    between atoms: C5_5  and  C4_4 
REMARK    4  A    between atoms: C6_6  and  C5_5 
REMARK    5  A    between atoms: C7_7  and  C6_6 
REMARK    6  A    between atoms: C8_8  and  C7_7 
REMARK    7  A    between atoms: C9_9  and  C8_8 
REMARK    8  A    between atoms: C10_10  and  C9_9 
REMARK    9  A    between atoms: C11_12  and  C10_10 
REMARK   10  A    between atoms: C11_12  and  C12_13 
REMARK       I    between atoms: C12_13  and  N1_15 
REMARK   11  A    between atoms: C13_16  and  N1_15 
ROOT
ATOM      1  C10 OHN d          39.260  14.875  -1.586  0.00  0.00     0.135 C 
ATOM      2  O1  OHN d          38.118  14.744  -1.182  0.00  0.00    -0.297 OA
ENDROOT
BRANCH   1   3
ATOM      3  C11 OHN d          40.138  13.696  -1.846  0.00  0.00     0.181 C 
BRANCH   3   4
ATOM      4  C12 OHN d          40.790  13.234  -0.569  0.00  0.00     0.225 C 
ATOM      5  N1  OHN d          40.038  12.708   0.389  0.00  0.00    -0.347 N 
ATOM      6  H19 OHN d          39.036  12.630   0.298  0.00  0.00     0.163 HD
ATOM      7  O2  OHN d          41.986  13.367  -0.467  0.00  0.00    -0.273 OA
BRANCH   5   8
ATOM      8  C13 OHN d          40.730  12.257   1.562  0.00  0.00     0.186 C 
ATOM      9  C14 OHN d          40.024  12.564   2.881  0.00  0.00     0.062 C 
ATOM     10  C15 OHN d          40.199  11.339   3.794  0.00  0.00     0.181 C 
ATOM     11  O4  OHN d          40.516  10.268   2.924  0.00  0.00    -0.320 OA
ATOM     12  C16 OHN d          40.829  10.782   1.633  0.00  0.00     0.281 C 
ATOM     13  O3  OHN d          41.153  10.081   0.713  0.00  0.00    -0.263 OA
ENDBRANCH   5   8
ENDBRANCH   3   4
ENDBRANCH   1   3
BRANCH   1  14
ATOM     14  C9  OHN d          39.843  16.238  -1.778  0.00  0.00     0.079 C 
BRANCH  14  15
ATOM     15  C8  OHN d          39.589  17.139  -0.593  0.00  0.00     0.007 C 
BRANCH  15  16
ATOM     16  C7  OHN d          39.277  18.497  -1.202  0.00  0.00     0.000 C 
BRANCH  16  17
ATOM     17  C6  OHN d          38.284  19.257  -0.315  0.00  0.00     0.000 C 
BRANCH  17  18
ATOM     18  C5  OHN d          38.800  20.674  -0.117  0.00  0.00     0.000 C 
BRANCH  18  19
ATOM     19  C4  OHN d          39.797  21.011  -1.204  0.00  0.00     0.000 C 
BRANCH  19  20
ATOM     20  C3  OHN d          40.627  22.211  -0.789  0.00  0.00    -0.000 C 
BRANCH  20  21
ATOM     21  C2  OHN d          40.118  22.746   0.530  0.00  0.00    -0.005 C 
ATOM     22  C1  OHN d          39.807  24.204   0.331  0.00  0.00     0.005 C 
ENDBRANCH  20  21
ENDBRANCH  19  20
ENDBRANCH  18  19
ENDBRANCH  17  18
ENDBRANCH  16  17
ENDBRANCH  15  16
ENDBRANCH  14  15
ENDBRANCH   1  14
TORSDOF 11
ENDMDL
MODEL 10
REMARK VINA RESULT:      -7.3      3.419      8.809
REMARK  11 active torsions:
REMARK  status: ('A' for Active; 'I' for Inactive)
REMARK    1  A    between atoms: C3_3  and  C2_2 
REMARK    2  A    between atoms: C4_4  and  C3_3 
REMARK    3  A    between atoms: C5_5  and  C4_4 
REMARK    4  A    between atoms: C6_6  and  C5_5 
REMARK    5  A    between atoms: C7_7  and  C6_6 
REMARK    6  A    between atoms: C8_8  and  C7_7 
REMARK    7  A    between atoms: C9_9  and  C8_8 
REMARK    8  A    between atoms: C10_10  and  C9_9 
REMARK    9  A    between atoms: C11_12  and  C10_10 
REMARK   10  A    between atoms: C11_12  and  C12_13 
REMARK       I    between atoms: C12_13  and  N1_15 
REMARK   11  A    between atoms: C13_16  and  N1_15 
ROOT
ATOM      1  C10 OHN d          40.254  15.516  -1.900  0.00  0.00     0.135 C 
ATOM      2  O1  OHN d          39.859  15.177  -3.002  0.00  0.00    -0.297 OA
ENDROOT
BRANCH   1   3
ATOM      3  C11 OHN d          41.227  14.686  -1.129  0.00  0.00     0.181 C 
BRANCH   3   4
ATOM      4  C12 OHN d          40.521  13.539  -0.454  0.00  0.00     0.225 C 
ATOM      5  N1  OHN d          41.097  12.944   0.582  0.00  0.00    -0.347 N 
ATOM      6  H19 OHN d          42.007  13.221   0.919  0.00  0.00     0.163 HD
ATOM      7  O2  OHN d          39.447  13.201  -0.893  0.00  0.00    -0.273 OA
BRANCH   5   8
ATOM      8  C13 OHN d          40.352  11.883   1.198  0.00  0.00     0.186 C 
ATOM      9  C14 OHN d          40.965  10.494   1.041  0.00  0.00     0.062 C 
ATOM     10  C15 OHN d          40.781   9.753   2.376  0.00  0.00     0.181 C 
ATOM     11  O4  OHN d          40.555  10.769   3.337  0.00  0.00    -0.320 OA
ATOM     12  C16 OHN d          40.303  12.004   2.673  0.00  0.00     0.281 C 
ATOM     13  O3  OHN d          40.061  13.023   3.261  0.00  0.00    -0.263 OA
ENDBRANCH   5   8
ENDBRANCH   3   4
ENDBRANCH   1   3
BRANCH   1  14
ATOM     14  C9  OHN d          39.723  16.755  -1.253  0.00  0.00     0.079 C 
BRANCH  14  15
ATOM     15  C8  OHN d          40.002  17.991  -2.074  0.00  0.00     0.007 C 
BRANCH  15  16
ATOM     16  C7  OHN d          39.175  19.085  -1.416  0.00  0.00     0.000 C 
BRANCH  16  17
ATOM     17  C6  OHN d          38.542  18.561  -0.123  0.00  0.00     0.000 C 
BRANCH  17  18
ATOM     18  C5  OHN d          38.285  19.741   0.801  0.00  0.00     0.000 C 
BRANCH  18  19
ATOM     19  C4  OHN d          38.714  21.024   0.123  0.00  0.00     0.000 C 
BRANCH  19  20
ATOM     20  C3  OHN d          39.350  21.957   1.136  0.00  0.00    -0.000 C 
BRANCH  20  21
ATOM     21  C2  OHN d          40.001  23.116   0.417  0.00  0.00    -0.005 C 
ATOM     22  C1  OHN d          40.420  22.621  -0.940  0.00  0.00     0.005 C 
ENDBRANCH  20  21
ENDBRANCH  19  20
ENDBRANCH  18  19
ENDBRANCH  17  18
ENDBRANCH  16  17
ENDBRANCH  15  16
ENDBRANCH  14  15
ENDBRANCH   1  14
TORSDOF 11
ENDMDL
MODEL 11
REMARK VINA RESULT:      -7.1      1.824      3.167
REMARK  11 active torsions:
REMARK  status: ('A' for Active; 'I' for Inactive)
REMARK    1  A    between atoms: C3_3  and  C2_2 
REMARK    2  A    between atoms: C4_4  and  C3_3 
REMARK    3  A    between atoms: C5_5  and  C4_4 
REMARK    4  A    between atoms: C6_6  and  C5_5 
REMARK    5  A    between atoms: C7_7  and  C6_6 
REMARK    6  A    between atoms: C8_8  and  C7_7 
REMARK    7  A    between atoms: C9_9  and  C8_8 
REMARK    8  A    between atoms: C10_10  and  C9_9 
REMARK    9  A    between atoms: C11_12  and  C10_10 
REMARK   10  A    between atoms: C11_12  and  C12_13 
REMARK       I    between atoms: C12_13  and  N1_15 
REMARK   11  A    between atoms: C13_16  and  N1_15 
ROOT
ATOM      1  C10 OHN d          40.733  15.340  -2.422  0.00  0.00     0.135 C 
ATOM      2  O1  OHN d          39.610  14.866  -2.401  0.00  0.00    -0.297 OA
ENDROOT
BRANCH   1   3
ATOM      3  C11 OHN d          41.032  16.611  -3.145  0.00  0.00     0.181 C 
BRANCH   3   4
ATOM      4  C12 OHN d          40.064  17.690  -2.733  0.00  0.00     0.225 C 
ATOM      5  N1  OHN d          39.905  17.960  -1.444  0.00  0.00    -0.347 N 
ATOM      6  H19 OHN d          40.396  17.446  -0.727  0.00  0.00     0.163 HD
ATOM      7  O2  OHN d          39.461  18.270  -3.605  0.00  0.00    -0.273 OA
BRANCH   5   8
ATOM      8  C13 OHN d          38.995  19.023  -1.127  0.00  0.00     0.186 C 
ATOM      9  C14 OHN d          38.330  18.911   0.243  0.00  0.00     0.062 C 
ATOM     10  C15 OHN d          38.274  20.324   0.847  0.00  0.00     0.181 C 
ATOM     11  O4  OHN d          39.248  21.070   0.139  0.00  0.00    -0.320 OA
ATOM     12  C16 OHN d          39.671  20.334  -1.005  0.00  0.00     0.281 C 
ATOM     13  O3  OHN d          40.480  20.754  -1.787  0.00  0.00    -0.263 OA
ENDBRANCH   5   8
ENDBRANCH   3   4
ENDBRANCH   1   3
BRANCH   1  14
ATOM     14  C9  OHN d          41.869  14.623  -1.767  0.00  0.00     0.079 C 
BRANCH  14  15
ATOM     15  C8  OHN d          41.569  13.160  -1.544  0.00  0.00     0.007 C 
BRANCH  15  16
ATOM     16  C7  OHN d          41.615  12.983  -0.034  0.00  0.00     0.000 C 
BRANCH  16  17
ATOM     17  C6  OHN d          40.251  12.515   0.483  0.00  0.00     0.000 C 
BRANCH  17  18
ATOM     18  C5  OHN d          40.300  11.008   0.680  0.00  0.00     0.000 C 
BRANCH  18  19
ATOM     19  C4  OHN d          39.849  10.660   2.081  0.00  0.00     0.000 C 
BRANCH  19  20
ATOM     20  C3  OHN d          40.813  11.245   3.095  0.00  0.00    -0.000 C 
BRANCH  20  21
ATOM     21  C2  OHN d          40.037  11.977   4.166  0.00  0.00    -0.005 C 
ATOM     22  C1  OHN d          38.820  11.151   4.480  0.00  0.00     0.005 C 
ENDBRANCH  20  21
ENDBRANCH  19  20
ENDBRANCH  18  19
ENDBRANCH  17  18
ENDBRANCH  16  17
ENDBRANCH  15  16
ENDBRANCH  14  15
ENDBRANCH   1  14
TORSDOF 11
ENDMDL
MODEL 12
REMARK VINA RESULT:      -7.0      4.784      8.685
REMARK  11 active torsions:
REMARK  status: ('A' for Active; 'I' for Inactive)
REMARK    1  A    between atoms: C3_3  and  C2_2 
REMARK    2  A    between atoms: C4_4  and  C3_3 
REMARK    3  A    between atoms: C5_5  and  C4_4 
REMARK    4  A    between atoms: C6_6  and  C5_5 
REMARK    5  A    between atoms: C7_7  and  C6_6 
REMARK    6  A    between atoms: C8_8  and  C7_7 
REMARK    7  A    between atoms: C9_9  and  C8_8 
REMARK    8  A    between atoms: C10_10  and  C9_9 
REMARK    9  A    between atoms: C11_12  and  C10_10 
REMARK   10  A    between atoms: C11_12  and  C12_13 
REMARK       I    between atoms: C12_13  and  N1_15 
REMARK   11  A    between atoms: C13_16  and  N1_15 
ROOT
ATOM      1  C10 OHN d          39.643  16.782  -1.526  0.00  0.00     0.135 C 
ATOM      2  O1  OHN d          39.418  17.080  -0.366  0.00  0.00    -0.297 OA
ENDROOT
BRANCH   1   3
ATOM      3  C11 OHN d          39.619  15.362  -1.988  0.00  0.00     0.181 C 
BRANCH   3   4
ATOM      4  C12 OHN d          40.522  14.515  -1.129  0.00  0.00     0.225 C 
ATOM      5  N1  OHN d          39.994  13.549  -0.390  0.00  0.00    -0.347 N 
ATOM      6  H19 OHN d          38.999  13.378  -0.367  0.00  0.00     0.163 HD
ATOM      7  O2  OHN d          41.705  14.758  -1.145  0.00  0.00    -0.273 OA
BRANCH   5   8
ATOM      8  C13 OHN d          40.915  12.759   0.375  0.00  0.00     0.186 C 
ATOM      9  C14 OHN d          40.409  12.334   1.751  0.00  0.00     0.062 C 
ATOM     10  C15 OHN d          40.866  10.884   1.985  0.00  0.00     0.181 C 
ATOM     11  O4  OHN d          41.152  10.372   0.696  0.00  0.00    -0.320 OA
ATOM     12  C16 OHN d          41.187  11.442  -0.244  0.00  0.00     0.281 C 
ATOM     13  O3  OHN d          41.430  11.279  -1.409  0.00  0.00    -0.263 OA
ENDBRANCH   5   8
ENDBRANCH   3   4
ENDBRANCH   1   3
BRANCH   1  14
ATOM     14  C9  OHN d          40.013  17.835  -2.520  0.00  0.00     0.079 C 
BRANCH  14  15
ATOM     15  C8  OHN d          40.639  17.252  -3.764  0.00  0.00     0.007 C 
BRANCH  15  16
ATOM     16  C7  OHN d          41.018  18.459  -4.607  0.00  0.00     0.000 C 
BRANCH  16  17
ATOM     17  C6  OHN d          41.001  18.090  -6.094  0.00  0.00     0.000 C 
BRANCH  17  18
ATOM     18  C5  OHN d          41.906  19.057  -6.842  0.00  0.00     0.000 C 
BRANCH  18  19
ATOM     19  C4  OHN d          42.921  18.283  -7.655  0.00  0.00     0.000 C 
BRANCH  19  20
ATOM     20  C3  OHN d          42.211  17.389  -8.653  0.00  0.00    -0.000 C 
BRANCH  20  21
ATOM     21  C2  OHN d          43.223  16.784  -9.598  0.00  0.00    -0.005 C 
ATOM     22  C1  OHN d          42.765  15.386  -9.909  0.00  0.00     0.005 C 
ENDBRANCH  20  21
ENDBRANCH  19  20
ENDBRANCH  18  19
ENDBRANCH  17  18
ENDBRANCH  16  17
ENDBRANCH  15  16
ENDBRANCH  14  15
ENDBRANCH   1  14
TORSDOF 11
ENDMDL
