MODEL 1
REMARK VINA RESULT:      -4.7      0.000      0.000
REMARK  11 active torsions:
REMARK  status: ('A' for Active; 'I' for Inactive)
REMARK    1  A    between atoms: C3_3  and  C2_2 
REMARK    2  A    between atoms: C4_4  and  C3_3 
REMARK    3  A    between atoms: C5_5  and  C4_4 
REMARK    4  A    between atoms: C6_6  and  C5_5 
REMARK    5  A    between atoms: C7_7  and  C6_6 
REMARK    6  A    between atoms: C8_8  and  C7_7 
REMARK    7  A    between atoms: C9_9  and  C8_8 
REMARK    8  A    between atoms: C10_10  and  C9_9 
REMARK    9  A    between atoms: C11_12  and  C10_10 
REMARK   10  A    between atoms: C11_12  and  C12_13 
REMARK       I    between atoms: C12_13  and  N1_15 
REMARK   11  A    between atoms: C13_16  and  N1_15 
ROOT
ATOM      1  C10 OHN d          44.675   1.201   7.874  0.00  0.00     0.135 C 
ATOM      2  O1  OHN d          44.119   1.081   6.796  0.00  0.00    -0.297 OA
ENDROOT
BRANCH   1   3
ATOM      3  C11 OHN d          44.319   0.336   9.037  0.00  0.00     0.181 C 
BRANCH   3   4
ATOM      4  C12 OHN d          42.828   0.323   9.246  0.00  0.00     0.225 C 
ATOM      5  N1  OHN d          42.039  -0.098   8.265  0.00  0.00    -0.347 N 
ATOM      6  H19 OHN d          42.409  -0.388   7.372  0.00  0.00     0.163 HD
ATOM      7  O2  OHN d          42.404   0.705  10.311  0.00  0.00    -0.273 OA
BRANCH   5   8
ATOM      8  C13 OHN d          40.633  -0.118   8.546  0.00  0.00     0.186 C 
ATOM      9  C14 OHN d          39.858   1.093   8.030  0.00  0.00     0.062 C 
ATOM     10  C15 OHN d          38.515   0.583   7.481  0.00  0.00     0.181 C 
ATOM     11  O4  OHN d          38.712  -0.799   7.240  0.00  0.00    -0.320 OA
ATOM     12  C16 OHN d          39.929  -1.219   7.851  0.00  0.00     0.281 C 
ATOM     13  O3  OHN d          40.320  -2.354   7.813  0.00  0.00    -0.263 OA
ENDBRANCH   5   8
ENDBRANCH   3   4
ENDBRANCH   1   3
BRANCH   1  14
ATOM     14  C9  OHN d          45.699   2.269   8.082  0.00  0.00     0.079 C 
BRANCH  14  15
ATOM     15  C8  OHN d          46.427   2.619   6.807  0.00  0.00     0.007 C 
BRANCH  15  16
ATOM     16  C7  OHN d          47.778   1.931   6.933  0.00  0.00     0.000 C 
BRANCH  16  17
ATOM     17  C6  OHN d          48.891   2.976   7.069  0.00  0.00     0.000 C 
BRANCH  17  18
ATOM     18  C5  OHN d          49.363   2.994   8.514  0.00  0.00     0.000 C 
BRANCH  18  19
ATOM     19  C4  OHN d          49.218   1.614   9.116  0.00  0.00     0.000 C 
BRANCH  19  20
ATOM     20  C3  OHN d          48.699   1.721  10.537  0.00  0.00    -0.000 C 
BRANCH  20  21
ATOM     21  C2  OHN d          47.694   0.621  10.792  0.00  0.00    -0.005 C 
ATOM     22  C1  OHN d          47.859  -0.397   9.698  0.00  0.00     0.005 C 
ENDBRANCH  20  21
ENDBRANCH  19  20
ENDBRANCH  18  19
ENDBRANCH  17  18
ENDBRANCH  16  17
ENDBRANCH  15  16
ENDBRANCH  14  15
ENDBRANCH   1  14
TORSDOF 11
ENDMDL
MODEL 2
REMARK VINA RESULT:      -4.7      1.537      2.941
REMARK  11 active torsions:
REMARK  status: ('A' for Active; 'I' for Inactive)
REMARK    1  A    between atoms: C3_3  and  C2_2 
REMARK    2  A    between atoms: C4_4  and  C3_3 
REMARK    3  A    between atoms: C5_5  and  C4_4 
REMARK    4  A    between atoms: C6_6  and  C5_5 
REMARK    5  A    between atoms: C7_7  and  C6_6 
REMARK    6  A    between atoms: C8_8  and  C7_7 
REMARK    7  A    between atoms: C9_9  and  C8_8 
REMARK    8  A    between atoms: C10_10  and  C9_9 
REMARK    9  A    between atoms: C11_12  and  C10_10 
REMARK   10  A    between atoms: C11_12  and  C12_13 
REMARK       I    between atoms: C12_13  and  N1_15 
REMARK   11  A    between atoms: C13_16  and  N1_15 
ROOT
ATOM      1  C10 OHN d          43.829   1.659   7.451  0.00  0.00     0.135 C 
ATOM      2  O1  OHN d          44.231   1.013   6.499  0.00  0.00    -0.297 OA
ENDROOT
BRANCH   1   3
ATOM      3  C11 OHN d          42.479   2.295   7.451  0.00  0.00     0.181 C 
BRANCH   3   4
ATOM      4  C12 OHN d          41.478   1.404   8.140  0.00  0.00     0.225 C 
ATOM      5  N1  OHN d          41.593   0.088   8.022  0.00  0.00    -0.347 N 
ATOM      6  H19 OHN d          42.318  -0.336   7.462  0.00  0.00     0.163 HD
ATOM      7  O2  OHN d          40.598   1.932   8.777  0.00  0.00    -0.273 OA
BRANCH   5   8
ATOM      8  C13 OHN d          40.627  -0.699   8.733  0.00  0.00     0.186 C 
ATOM      9  C14 OHN d          39.578  -1.376   7.855  0.00  0.00     0.062 C 
ATOM     10  C15 OHN d          39.338  -2.785   8.424  0.00  0.00     0.181 C 
ATOM     11  O4  OHN d          40.479  -3.067   9.213  0.00  0.00    -0.320 OA
ATOM     12  C16 OHN d          41.232  -1.872   9.404  0.00  0.00     0.281 C 
ATOM     13  O3  OHN d          42.240  -1.834  10.057  0.00  0.00    -0.263 OA
ENDBRANCH   5   8
ENDBRANCH   3   4
ENDBRANCH   1   3
BRANCH   1  14
ATOM     14  C9  OHN d          44.711   1.887   8.637  0.00  0.00     0.079 C 
BRANCH  14  15
ATOM     15  C8  OHN d          44.880   0.640   9.471  0.00  0.00     0.007 C 
BRANCH  15  16
ATOM     16  C7  OHN d          45.527   1.123  10.759  0.00  0.00     0.000 C 
BRANCH  16  17
ATOM     17  C6  OHN d          47.047   1.210  10.586  0.00  0.00     0.000 C 
BRANCH  17  18
ATOM     18  C5  OHN d          47.552  -0.130  10.074  0.00  0.00     0.000 C 
BRANCH  18  19
ATOM     19  C4  OHN d          48.499   0.090   8.915  0.00  0.00     0.000 C 
BRANCH  19  20
ATOM     20  C3  OHN d          48.358   1.507   8.394  0.00  0.00    -0.000 C 
BRANCH  20  21
ATOM     21  C2  OHN d          47.976   1.472   6.932  0.00  0.00    -0.005 C 
ATOM     22  C1  OHN d          47.690   2.887   6.511  0.00  0.00     0.005 C 
ENDBRANCH  20  21
ENDBRANCH  19  20
ENDBRANCH  18  19
ENDBRANCH  17  18
ENDBRANCH  16  17
ENDBRANCH  15  16
ENDBRANCH  14  15
ENDBRANCH   1  14
TORSDOF 11
ENDMDL
MODEL 3
REMARK VINA RESULT:      -4.7      0.742      1.180
REMARK  11 active torsions:
REMARK  status: ('A' for Active; 'I' for Inactive)
REMARK    1  A    between atoms: C3_3  and  C2_2 
REMARK    2  A    between atoms: C4_4  and  C3_3 
REMARK    3  A    between atoms: C5_5  and  C4_4 
REMARK    4  A    between atoms: C6_6  and  C5_5 
REMARK    5  A    between atoms: C7_7  and  C6_6 
REMARK    6  A    between atoms: C8_8  and  C7_7 
REMARK    7  A    between atoms: C9_9  and  C8_8 
REMARK    8  A    between atoms: C10_10  and  C9_9 
REMARK    9  A    between atoms: C11_12  and  C10_10 
REMARK   10  A    between atoms: C11_12  and  C12_13 
REMARK       I    between atoms: C12_13  and  N1_15 
REMARK   11  A    between atoms: C13_16  and  N1_15 
ROOT
ATOM      1  C10 OHN d          44.324   1.334   7.603  0.00  0.00     0.135 C 
ATOM      2  O1  OHN d          44.104   0.923   6.477  0.00  0.00    -0.297 OA
ENDROOT
BRANCH   1   3
ATOM      3  C11 OHN d          44.185   0.451   8.799  0.00  0.00     0.181 C 
BRANCH   3   4
ATOM      4  C12 OHN d          42.731   0.257   9.143  0.00  0.00     0.225 C 
ATOM      5  N1  OHN d          41.867  -0.015   8.174  0.00  0.00    -0.347 N 
ATOM      6  H19 OHN d          42.150  -0.072   7.207  0.00  0.00     0.163 HD
ATOM      7  O2  OHN d          42.407   0.362  10.302  0.00  0.00    -0.273 OA
BRANCH   5   8
ATOM      8  C13 OHN d          40.506  -0.223   8.578  0.00  0.00     0.186 C 
ATOM      9  C14 OHN d          39.565   0.945   8.290  0.00  0.00     0.062 C 
ATOM     10  C15 OHN d          38.230   0.354   7.807  0.00  0.00     0.181 C 
ATOM     11  O4  OHN d          38.537  -0.960   7.379  0.00  0.00    -0.320 OA
ATOM     12  C16 OHN d          39.846  -1.309   7.820  0.00  0.00     0.281 C 
ATOM     13  O3  OHN d          40.342  -2.382   7.604  0.00  0.00    -0.263 OA
ENDBRANCH   5   8
ENDBRANCH   3   4
ENDBRANCH   1   3
BRANCH   1  14
ATOM     14  C9  OHN d          44.685   2.767   7.829  0.00  0.00     0.079 C 
BRANCH  14  15
ATOM     15  C8  OHN d          46.136   2.937   8.211  0.00  0.00     0.007 C 
BRANCH  15  16
ATOM     16  C7  OHN d          46.901   2.749   6.911  0.00  0.00     0.000 C 
BRANCH  16  17
ATOM     17  C6  OHN d          47.978   1.672   7.084  0.00  0.00     0.000 C 
BRANCH  17  18
ATOM     18  C5  OHN d          48.333   1.577   8.560  0.00  0.00     0.000 C 
BRANCH  18  19
ATOM     19  C4  OHN d          48.391   0.125   8.979  0.00  0.00     0.000 C 
BRANCH  19  20
ATOM     20  C3  OHN d          47.590  -0.079  10.250  0.00  0.00    -0.000 C 
BRANCH  20  21
ATOM     21  C2  OHN d          47.620   1.187  11.076  0.00  0.00    -0.005 C 
ATOM     22  C1  OHN d          46.286   1.307  11.758  0.00  0.00     0.005 C 
ENDBRANCH  20  21
ENDBRANCH  19  20
ENDBRANCH  18  19
ENDBRANCH  17  18
ENDBRANCH  16  17
ENDBRANCH  15  16
ENDBRANCH  14  15
ENDBRANCH   1  14
TORSDOF 11
ENDMDL
MODEL 4
REMARK VINA RESULT:      -4.7      4.395      7.284
REMARK  11 active torsions:
REMARK  status: ('A' for Active; 'I' for Inactive)
REMARK    1  A    between atoms: C3_3  and  C2_2 
REMARK    2  A    between atoms: C4_4  and  C3_3 
REMARK    3  A    between atoms: C5_5  and  C4_4 
REMARK    4  A    between atoms: C6_6  and  C5_5 
REMARK    5  A    between atoms: C7_7  and  C6_6 
REMARK    6  A    between atoms: C8_8  and  C7_7 
REMARK    7  A    between atoms: C9_9  and  C8_8 
REMARK    8  A    between atoms: C10_10  and  C9_9 
REMARK    9  A    between atoms: C11_12  and  C10_10 
REMARK   10  A    between atoms: C11_12  and  C12_13 
REMARK       I    between atoms: C12_13  and  N1_15 
REMARK   11  A    between atoms: C13_16  and  N1_15 
ROOT
ATOM      1  C10 OHN d          39.366  -2.287   7.987  0.00  0.00     0.135 C 
ATOM      2  O1  OHN d          39.103  -3.281   8.642  0.00  0.00    -0.297 OA
ENDROOT
BRANCH   1   3
ATOM      3  C11 OHN d          38.667  -1.990   6.702  0.00  0.00     0.181 C 
BRANCH   3   4
ATOM      4  C12 OHN d          37.819  -3.162   6.281  0.00  0.00     0.225 C 
ATOM      5  N1  OHN d          38.406  -4.236   5.768  0.00  0.00    -0.347 N 
ATOM      6  H19 OHN d          39.405  -4.282   5.629  0.00  0.00     0.163 HD
ATOM      7  O2  OHN d          36.623  -3.074   6.426  0.00  0.00    -0.273 OA
BRANCH   5   8
ATOM      8  C13 OHN d          37.541  -5.327   5.423  0.00  0.00     0.186 C 
ATOM      9  C14 OHN d          37.851  -5.993   4.085  0.00  0.00     0.062 C 
ATOM     10  C15 OHN d          37.673  -7.510   4.271  0.00  0.00     0.181 C 
ATOM     11  O4  OHN d          37.756  -7.726   5.668  0.00  0.00    -0.320 OA
ATOM     12  C16 OHN d          37.677  -6.476   6.347  0.00  0.00     0.281 C 
ATOM     13  O3  OHN d          37.704  -6.382   7.545  0.00  0.00    -0.263 OA
ENDBRANCH   5   8
ENDBRANCH   3   4
ENDBRANCH   1   3
BRANCH   1  14
ATOM     14  C9  OHN d          40.451  -1.358   8.425  0.00  0.00     0.079 C 
BRANCH  14  15
ATOM     15  C8  OHN d          40.324  -0.977   9.880  0.00  0.00     0.007 C 
BRANCH  15  16
ATOM     16  C7  OHN d          41.701  -0.460  10.265  0.00  0.00     0.000 C 
BRANCH  16  17
ATOM     17  C6  OHN d          42.469  -0.024   9.013  0.00  0.00     0.000 C 
BRANCH  17  18
ATOM     18  C5  OHN d          43.014   1.377   9.244  0.00  0.00     0.000 C 
BRANCH  18  19
ATOM     19  C4  OHN d          41.903   2.391   9.082  0.00  0.00     0.000 C 
BRANCH  19  20
ATOM     20  C3  OHN d          41.227   2.207   7.738  0.00  0.00    -0.000 C 
BRANCH  20  21
ATOM     21  C2  OHN d          39.746   2.477   7.876  0.00  0.00    -0.005 C 
ATOM     22  C1  OHN d          39.054   1.761   6.749  0.00  0.00     0.005 C 
ENDBRANCH  20  21
ENDBRANCH  19  20
ENDBRANCH  18  19
ENDBRANCH  17  18
ENDBRANCH  16  17
ENDBRANCH  15  16
ENDBRANCH  14  15
ENDBRANCH   1  14
TORSDOF 11
ENDMDL
MODEL 5
REMARK VINA RESULT:      -4.7      1.305      1.717
REMARK  11 active torsions:
REMARK  status: ('A' for Active; 'I' for Inactive)
REMARK    1  A    between atoms: C3_3  and  C2_2 
REMARK    2  A    between atoms: C4_4  and  C3_3 
REMARK    3  A    between atoms: C5_5  and  C4_4 
REMARK    4  A    between atoms: C6_6  and  C5_5 
REMARK    5  A    between atoms: C7_7  and  C6_6 
REMARK    6  A    between atoms: C8_8  and  C7_7 
REMARK    7  A    between atoms: C9_9  and  C8_8 
REMARK    8  A    between atoms: C10_10  and  C9_9 
REMARK    9  A    between atoms: C11_12  and  C10_10 
REMARK   10  A    between atoms: C11_12  and  C12_13 
REMARK       I    between atoms: C12_13  and  N1_15 
REMARK   11  A    between atoms: C13_16  and  N1_15 
ROOT
ATOM      1  C10 OHN d          43.632   1.572   7.590  0.00  0.00     0.135 C 
ATOM      2  O1  OHN d          42.620   2.168   7.266  0.00  0.00    -0.297 OA
ENDROOT
BRANCH   1   3
ATOM      3  C11 OHN d          43.649   0.631   8.748  0.00  0.00     0.181 C 
BRANCH   3   4
ATOM      4  C12 OHN d          42.253   0.166   9.068  0.00  0.00     0.225 C 
ATOM      5  N1  OHN d          41.571  -0.515   8.156  0.00  0.00    -0.347 N 
ATOM      6  H19 OHN d          41.953  -0.712   7.242  0.00  0.00     0.163 HD
ATOM      7  O2  OHN d          41.802   0.440  10.155  0.00  0.00    -0.273 OA
BRANCH   5   8
ATOM      8  C13 OHN d          40.262  -0.957   8.542  0.00  0.00     0.186 C 
ATOM      9  C14 OHN d          39.203  -0.857   7.447  0.00  0.00     0.062 C 
ATOM     10  C15 OHN d          38.322  -2.115   7.540  0.00  0.00     0.181 C 
ATOM     11  O4  OHN d          39.095  -3.059   8.259  0.00  0.00    -0.320 OA
ATOM     12  C16 OHN d          40.217  -2.405   8.846  0.00  0.00     0.281 C 
ATOM     13  O3  OHN d          41.023  -2.980   9.527  0.00  0.00    -0.263 OA
ENDBRANCH   5   8
ENDBRANCH   3   4
ENDBRANCH   1   3
BRANCH   1  14
ATOM     14  C9  OHN d          44.917   1.815   6.866  0.00  0.00     0.079 C 
BRANCH  14  15
ATOM     15  C8  OHN d          45.861   2.691   7.654  0.00  0.00     0.007 C 
BRANCH  15  16
ATOM     16  C7  OHN d          47.106   2.793   6.788  0.00  0.00     0.000 C 
BRANCH  16  17
ATOM     17  C6  OHN d          48.013   1.580   7.022  0.00  0.00     0.000 C 
BRANCH  17  18
ATOM     18  C5  OHN d          48.443   1.573   8.481  0.00  0.00     0.000 C 
BRANCH  18  19
ATOM     19  C4  OHN d          48.335   0.172   9.040  0.00  0.00     0.000 C 
BRANCH  19  20
ATOM     20  C3  OHN d          47.176   0.090  10.014  0.00  0.00    -0.000 C 
BRANCH  20  21
ATOM     21  C2  OHN d          47.176   1.314  10.902  0.00  0.00    -0.005 C 
ATOM     22  C1  OHN d          45.855   1.343  11.621  0.00  0.00     0.005 C 
ENDBRANCH  20  21
ENDBRANCH  19  20
ENDBRANCH  18  19
ENDBRANCH  17  18
ENDBRANCH  16  17
ENDBRANCH  15  16
ENDBRANCH  14  15
ENDBRANCH   1  14
TORSDOF 11
ENDMDL
MODEL 6
REMARK VINA RESULT:      -4.7      2.388      4.569
REMARK  11 active torsions:
REMARK  status: ('A' for Active; 'I' for Inactive)
REMARK    1  A    between atoms: C3_3  and  C2_2 
REMARK    2  A    between atoms: C4_4  and  C3_3 
REMARK    3  A    between atoms: C5_5  and  C4_4 
REMARK    4  A    between atoms: C6_6  and  C5_5 
REMARK    5  A    between atoms: C7_7  and  C6_6 
REMARK    6  A    between atoms: C8_8  and  C7_7 
REMARK    7  A    between atoms: C9_9  and  C8_8 
REMARK    8  A    between atoms: C10_10  and  C9_9 
REMARK    9  A    between atoms: C11_12  and  C10_10 
REMARK   10  A    between atoms: C11_12  and  C12_13 
REMARK       I    between atoms: C12_13  and  N1_15 
REMARK   11  A    between atoms: C13_16  and  N1_15 
ROOT
ATOM      1  C10 OHN d          39.285   1.741   7.387  0.00  0.00     0.135 C 
ATOM      2  O1  OHN d          38.704   1.741   6.315  0.00  0.00    -0.297 OA
ENDROOT
BRANCH   1   3
ATOM      3  C11 OHN d          38.607   1.305   8.644  0.00  0.00     0.181 C 
BRANCH   3   4
ATOM      4  C12 OHN d          38.389  -0.185   8.633  0.00  0.00     0.225 C 
ATOM      5  N1  OHN d          37.987  -0.774   7.514  0.00  0.00    -0.347 N 
ATOM      6  H19 OHN d          37.800  -0.248   6.673  0.00  0.00     0.163 HD
ATOM      7  O2  OHN d          38.586  -0.791   9.660  0.00  0.00    -0.273 OA
BRANCH   5   8
ATOM      8  C13 OHN d          37.833  -2.199   7.567  0.00  0.00     0.186 C 
ATOM      9  C14 OHN d          36.601  -2.739   6.845  0.00  0.00     0.062 C 
ATOM     10  C15 OHN d          37.016  -4.035   6.128  0.00  0.00     0.181 C 
ATOM     11  O4  OHN d          38.427  -3.967   6.024  0.00  0.00    -0.320 OA
ATOM     12  C16 OHN d          38.914  -2.915   6.852  0.00  0.00     0.281 C 
ATOM     13  O3  OHN d          40.083  -2.659   6.961  0.00  0.00    -0.263 OA
ENDBRANCH   5   8
ENDBRANCH   3   4
ENDBRANCH   1   3
BRANCH   1  14
ATOM     14  C9  OHN d          40.691   2.239   7.486  0.00  0.00     0.079 C 
BRANCH  14  15
ATOM     15  C8  OHN d          41.219   2.182   8.899  0.00  0.00     0.007 C 
BRANCH  15  16
ATOM     16  C7  OHN d          42.718   1.976   8.742  0.00  0.00     0.000 C 
BRANCH  16  17
ATOM     17  C6  OHN d          43.153   2.338   7.318  0.00  0.00     0.000 C 
BRANCH  17  18
ATOM     18  C5  OHN d          44.212   1.343   6.870  0.00  0.00     0.000 C 
BRANCH  18  19
ATOM     19  C4  OHN d          45.458   1.509   7.712  0.00  0.00     0.000 C 
BRANCH  19  20
ATOM     20  C3  OHN d          46.423   2.457   7.027  0.00  0.00    -0.000 C 
BRANCH  20  21
ATOM     21  C2  OHN d          47.760   1.775   6.848  0.00  0.00    -0.005 C 
ATOM     22  C1  OHN d          48.194   1.280   8.200  0.00  0.00     0.005 C 
ENDBRANCH  20  21
ENDBRANCH  19  20
ENDBRANCH  18  19
ENDBRANCH  17  18
ENDBRANCH  16  17
ENDBRANCH  15  16
ENDBRANCH  14  15
ENDBRANCH   1  14
TORSDOF 11
ENDMDL
MODEL 7
REMARK VINA RESULT:      -4.7      4.233      7.437
REMARK  11 active torsions:
REMARK  status: ('A' for Active; 'I' for Inactive)
REMARK    1  A    between atoms: C3_3  and  C2_2 
REMARK    2  A    between atoms: C4_4  and  C3_3 
REMARK    3  A    between atoms: C5_5  and  C4_4 
REMARK    4  A    between atoms: C6_6  and  C5_5 
REMARK    5  A    between atoms: C7_7  and  C6_6 
REMARK    6  A    between atoms: C8_8  and  C7_7 
REMARK    7  A    between atoms: C9_9  and  C8_8 
REMARK    8  A    between atoms: C10_10  and  C9_9 
REMARK    9  A    between atoms: C11_12  and  C10_10 
REMARK   10  A    between atoms: C11_12  and  C12_13 
REMARK       I    between atoms: C12_13  and  N1_15 
REMARK   11  A    between atoms: C13_16  and  N1_15 
ROOT
ATOM      1  C10 OHN d          39.209  -2.700   8.054  0.00  0.00     0.135 C 
ATOM      2  O1  OHN d          38.701  -3.565   8.748  0.00  0.00    -0.297 OA
ENDROOT
BRANCH   1   3
ATOM      3  C11 OHN d          38.627  -2.314   6.735  0.00  0.00     0.181 C 
BRANCH   3   4
ATOM      4  C12 OHN d          37.750  -3.418   6.204  0.00  0.00     0.225 C 
ATOM      5  N1  OHN d          38.312  -4.532   5.753  0.00  0.00    -0.347 N 
ATOM      6  H19 OHN d          39.314  -4.653   5.732  0.00  0.00     0.163 HD
ATOM      7  O2  OHN d          36.555  -3.239   6.206  0.00  0.00    -0.273 OA
BRANCH   5   8
ATOM      8  C13 OHN d          37.416  -5.554   5.295  0.00  0.00     0.186 C 
ATOM      9  C14 OHN d          37.670  -6.040   3.871  0.00  0.00     0.062 C 
ATOM     10  C15 OHN d          37.468  -7.565   3.860  0.00  0.00     0.181 C 
ATOM     11  O4  OHN d          37.590  -7.967   5.212  0.00  0.00    -0.320 OA
ATOM     12  C16 OHN d          37.558  -6.817   6.054  0.00  0.00     0.281 C 
ATOM     13  O3  OHN d          37.624  -6.884   7.251  0.00  0.00    -0.263 OA
ENDBRANCH   5   8
ENDBRANCH   3   4
ENDBRANCH   1   3
BRANCH   1  14
ATOM     14  C9  OHN d          40.478  -2.035   8.482  0.00  0.00     0.079 C 
BRANCH  14  15
ATOM     15  C8  OHN d          40.496  -0.566   8.138  0.00  0.00     0.007 C 
BRANCH  15  16
ATOM     16  C7  OHN d          39.779   0.111   9.295  0.00  0.00     0.000 C 
BRANCH  16  17
ATOM     17  C6  OHN d          39.096   1.395   8.814  0.00  0.00     0.000 C 
BRANCH  17  18
ATOM     18  C5  OHN d          40.094   2.192   7.987  0.00  0.00     0.000 C 
BRANCH  18  19
ATOM     19  C4  OHN d          40.947   3.046   8.899  0.00  0.00     0.000 C 
BRANCH  19  20
ATOM     20  C3  OHN d          42.400   2.630   8.788  0.00  0.00    -0.000 C 
BRANCH  20  21
ATOM     21  C2  OHN d          42.717   2.275   7.353  0.00  0.00    -0.005 C 
ATOM     22  C1  OHN d          43.759   1.192   7.380  0.00  0.00     0.005 C 
ENDBRANCH  20  21
ENDBRANCH  19  20
ENDBRANCH  18  19
ENDBRANCH  17  18
ENDBRANCH  16  17
ENDBRANCH  15  16
ENDBRANCH  14  15
ENDBRANCH   1  14
TORSDOF 11
ENDMDL
MODEL 8
REMARK VINA RESULT:      -4.7      2.789      5.161
REMARK  11 active torsions:
REMARK  status: ('A' for Active; 'I' for Inactive)
REMARK    1  A    between atoms: C3_3  and  C2_2 
REMARK    2  A    between atoms: C4_4  and  C3_3 
REMARK    3  A    between atoms: C5_5  and  C4_4 
REMARK    4  A    between atoms: C6_6  and  C5_5 
REMARK    5  A    between atoms: C7_7  and  C6_6 
REMARK    6  A    between atoms: C8_8  and  C7_7 
REMARK    7  A    between atoms: C9_9  and  C8_8 
REMARK    8  A    between atoms: C10_10  and  C9_9 
REMARK    9  A    between atoms: C11_12  and  C10_10 
REMARK   10  A    between atoms: C11_12  and  C12_13 
REMARK       I    between atoms: C12_13  and  N1_15 
REMARK   11  A    between atoms: C13_16  and  N1_15 
ROOT
ATOM      1  C10 OHN d          44.189   1.101   8.480  0.00  0.00     0.135 C 
ATOM      2  O1  OHN d          43.984   0.900   7.295  0.00  0.00    -0.297 OA
ENDROOT
BRANCH   1   3
ATOM      3  C11 OHN d          43.929   0.050   9.508  0.00  0.00     0.181 C 
BRANCH   3   4
ATOM      4  C12 OHN d          42.453  -0.231   9.611  0.00  0.00     0.225 C 
ATOM      5  N1  OHN d          41.889  -1.063   8.746  0.00  0.00    -0.347 N 
ATOM      6  H19 OHN d          42.417  -1.498   8.002  0.00  0.00     0.163 HD
ATOM      7  O2  OHN d          41.833   0.325  10.487  0.00  0.00    -0.273 OA
BRANCH   5   8
ATOM      8  C13 OHN d          40.488  -1.312   8.925  0.00  0.00     0.186 C 
ATOM      9  C14 OHN d          39.664  -1.300   7.640  0.00  0.00     0.062 C 
ATOM     10  C15 OHN d          38.633  -2.438   7.741  0.00  0.00     0.181 C 
ATOM     11  O4  OHN d          39.142  -3.314   8.730  0.00  0.00    -0.320 OA
ATOM     12  C16 OHN d          40.210  -2.677   9.425  0.00  0.00     0.281 C 
ATOM     13  O3  OHN d          40.803  -3.200  10.330  0.00  0.00    -0.263 OA
ENDBRANCH   5   8
ENDBRANCH   3   4
ENDBRANCH   1   3
BRANCH   1  14
ATOM     14  C9  OHN d          44.655   2.441   8.951  0.00  0.00     0.079 C 
BRANCH  14  15
ATOM     15  C8  OHN d          43.689   3.542   8.585  0.00  0.00     0.007 C 
BRANCH  15  16
ATOM     16  C7  OHN d          43.477   4.314   9.877  0.00  0.00     0.000 C 
BRANCH  16  17
ATOM     17  C6  OHN d          42.220   3.807  10.593  0.00  0.00     0.000 C 
BRANCH  17  18
ATOM     18  C5  OHN d          41.030   3.981   9.662  0.00  0.00     0.000 C 
BRANCH  18  19
ATOM     19  C4  OHN d          39.837   3.232  10.213  0.00  0.00     0.000 C 
BRANCH  19  20
ATOM     20  C3  OHN d          39.249   2.336   9.141  0.00  0.00    -0.000 C 
BRANCH  20  21
ATOM     21  C2  OHN d          40.113   2.395   7.902  0.00  0.00    -0.005 C 
ATOM     22  C1  OHN d          39.214   2.172   6.718  0.00  0.00     0.005 C 
ENDBRANCH  20  21
ENDBRANCH  19  20
ENDBRANCH  18  19
ENDBRANCH  17  18
ENDBRANCH  16  17
ENDBRANCH  15  16
ENDBRANCH  14  15
ENDBRANCH   1  14
TORSDOF 11
ENDMDL
MODEL 9
REMARK VINA RESULT:      -4.6      1.112      2.147
REMARK  11 active torsions:
REMARK  status: ('A' for Active; 'I' for Inactive)
REMARK    1  A    between atoms: C3_3  and  C2_2 
REMARK    2  A    between atoms: C4_4  and  C3_3 
REMARK    3  A    between atoms: C5_5  and  C4_4 
REMARK    4  A    between atoms: C6_6  and  C5_5 
REMARK    5  A    between atoms: C7_7  and  C6_6 
REMARK    6  A    between atoms: C8_8  and  C7_7 
REMARK    7  A    between atoms: C9_9  and  C8_8 
REMARK    8  A    between atoms: C10_10  and  C9_9 
REMARK    9  A    between atoms: C11_12  and  C10_10 
REMARK   10  A    between atoms: C11_12  and  C12_13 
REMARK       I    between atoms: C12_13  and  N1_15 
REMARK   11  A    between atoms: C13_16  and  N1_15 
ROOT
ATOM      1  C10 OHN d          44.180   1.397   7.657  0.00  0.00     0.135 C 
ATOM      2  O1  OHN d          44.253   0.962   6.521  0.00  0.00    -0.297 OA
ENDROOT
BRANCH   1   3
ATOM      3  C11 OHN d          44.088   0.489   8.838  0.00  0.00     0.181 C 
BRANCH   3   4
ATOM      4  C12 OHN d          42.647   0.214   9.180  0.00  0.00     0.225 C 
ATOM      5  N1  OHN d          41.778  -0.002   8.201  0.00  0.00    -0.347 N 
ATOM      6  H19 OHN d          42.050   0.035   7.229  0.00  0.00     0.163 HD
ATOM      7  O2  OHN d          42.336   0.207  10.347  0.00  0.00    -0.273 OA
BRANCH   5   8
ATOM      8  C13 OHN d          40.432  -0.292   8.600  0.00  0.00     0.186 C 
ATOM      9  C14 OHN d          39.436   0.843   8.374  0.00  0.00     0.062 C 
ATOM     10  C15 OHN d          38.126   0.215   7.869  0.00  0.00     0.181 C 
ATOM     11  O4  OHN d          38.491  -1.061   7.375  0.00  0.00    -0.320 OA
ATOM     12  C16 OHN d          39.818  -1.370   7.793  0.00  0.00     0.281 C 
ATOM     13  O3  OHN d          40.361  -2.407   7.523  0.00  0.00    -0.263 OA
ENDBRANCH   5   8
ENDBRANCH   3   4
ENDBRANCH   1   3
BRANCH   1  14
ATOM     14  C9  OHN d          44.117   2.870   7.900  0.00  0.00     0.079 C 
BRANCH  14  15
ATOM     15  C8  OHN d          44.707   3.254   9.236  0.00  0.00     0.007 C 
BRANCH  15  16
ATOM     16  C7  OHN d          45.863   4.181   8.895  0.00  0.00     0.000 C 
BRANCH  16  17
ATOM     17  C6  OHN d          47.015   3.971   9.884  0.00  0.00     0.000 C 
BRANCH  17  18
ATOM     18  C5  OHN d          47.349   2.488   9.930  0.00  0.00     0.000 C 
BRANCH  18  19
ATOM     19  C4  OHN d          48.478   2.189   8.969  0.00  0.00     0.000 C 
BRANCH  19  20
ATOM     20  C3  OHN d          47.996   1.248   7.882  0.00  0.00    -0.000 C 
BRANCH  20  21
ATOM     21  C2  OHN d          47.791   2.022   6.599  0.00  0.00    -0.005 C 
ATOM     22  C1  OHN d          48.812   3.126   6.576  0.00  0.00     0.005 C 
ENDBRANCH  20  21
ENDBRANCH  19  20
ENDBRANCH  18  19
ENDBRANCH  17  18
ENDBRANCH  16  17
ENDBRANCH  15  16
ENDBRANCH  14  15
ENDBRANCH   1  14
TORSDOF 11
ENDMDL
MODEL 10
REMARK VINA RESULT:      -4.6      4.430      9.578
REMARK  11 active torsions:
REMARK  status: ('A' for Active; 'I' for Inactive)
REMARK    1  A    between atoms: C3_3  and  C2_2 
REMARK    2  A    between atoms: C4_4  and  C3_3 
REMARK    3  A    between atoms: C5_5  and  C4_4 
REMARK    4  A    between atoms: C6_6  and  C5_5 
REMARK    5  A    between atoms: C7_7  and  C6_6 
REMARK    6  A    between atoms: C8_8  and  C7_7 
REMARK    7  A    between atoms: C9_9  and  C8_8 
REMARK    8  A    between atoms: C10_10  and  C9_9 
REMARK    9  A    between atoms: C11_12  and  C10_10 
REMARK   10  A    between atoms: C11_12  and  C12_13 
REMARK       I    between atoms: C12_13  and  N1_15 
REMARK   11  A    between atoms: C13_16  and  N1_15 
ROOT
ATOM      1  C10 OHN d          39.267  -1.994   7.351  0.00  0.00     0.135 C 
ATOM      2  O1  OHN d          38.974  -0.857   7.023  0.00  0.00    -0.297 OA
ENDROOT
BRANCH   1   3
ATOM      3  C11 OHN d          40.110  -2.269   8.551  0.00  0.00     0.181 C 
BRANCH   3   4
ATOM      4  C12 OHN d          40.872  -1.033   8.953  0.00  0.00     0.225 C 
ATOM      5  N1  OHN d          41.685  -0.459   8.077  0.00  0.00    -0.347 N 
ATOM      6  H19 OHN d          41.828  -0.840   7.153  0.00  0.00     0.163 HD
ATOM      7  O2  OHN d          40.712  -0.612  10.075  0.00  0.00    -0.273 OA
BRANCH   5   8
ATOM      8  C13 OHN d          42.350   0.734   8.515  0.00  0.00     0.186 C 
ATOM      9  C14 OHN d          43.874   0.683   8.446  0.00  0.00     0.062 C 
ATOM     10  C15 OHN d          44.361   2.055   7.951  0.00  0.00     0.181 C 
ATOM     11  O4  OHN d          43.237   2.646   7.324  0.00  0.00    -0.320 OA
ATOM     12  C16 OHN d          42.068   1.897   7.643  0.00  0.00     0.281 C 
ATOM     13  O3  OHN d          40.973   2.199   7.251  0.00  0.00    -0.263 OA
ENDBRANCH   5   8
ENDBRANCH   3   4
ENDBRANCH   1   3
BRANCH   1  14
ATOM     14  C9  OHN d          38.834  -3.157   6.518  0.00  0.00     0.079 C 
BRANCH  14  15
ATOM     15  C8  OHN d          37.862  -4.052   7.247  0.00  0.00     0.007 C 
BRANCH  15  16
ATOM     16  C7  OHN d          37.834  -5.336   6.432  0.00  0.00     0.000 C 
BRANCH  16  17
ATOM     17  C6  OHN d          37.010  -5.131   5.156  0.00  0.00     0.000 C 
BRANCH  17  18
ATOM     18  C5  OHN d          37.704  -5.855   4.012  0.00  0.00     0.000 C 
BRANCH  18  19
ATOM     19  C4  OHN d          36.793  -6.930   3.460  0.00  0.00     0.000 C 
BRANCH  19  20
ATOM     20  C3  OHN d          37.433  -8.293   3.642  0.00  0.00    -0.000 C 
BRANCH  20  21
ATOM     21  C2  OHN d          38.881  -8.122   4.039  0.00  0.00    -0.005 C 
ATOM     22  C1  OHN d          39.090  -8.900   5.309  0.00  0.00     0.005 C 
ENDBRANCH  20  21
ENDBRANCH  19  20
ENDBRANCH  18  19
ENDBRANCH  17  18
ENDBRANCH  16  17
ENDBRANCH  15  16
ENDBRANCH  14  15
ENDBRANCH   1  14
TORSDOF 11
ENDMDL
MODEL 11
REMARK VINA RESULT:      -4.6      1.709      2.587
REMARK  11 active torsions:
REMARK  status: ('A' for Active; 'I' for Inactive)
REMARK    1  A    between atoms: C3_3  and  C2_2 
REMARK    2  A    between atoms: C4_4  and  C3_3 
REMARK    3  A    between atoms: C5_5  and  C4_4 
REMARK    4  A    between atoms: C6_6  and  C5_5 
REMARK    5  A    between atoms: C7_7  and  C6_6 
REMARK    6  A    between atoms: C8_8  and  C7_7 
REMARK    7  A    between atoms: C9_9  and  C8_8 
REMARK    8  A    between atoms: C10_10  and  C9_9 
REMARK    9  A    between atoms: C11_12  and  C10_10 
REMARK   10  A    between atoms: C11_12  and  C12_13 
REMARK       I    between atoms: C12_13  and  N1_15 
REMARK   11  A    between atoms: C13_16  and  N1_15 
ROOT
ATOM      1  C10 OHN d          44.607   1.611   7.732  0.00  0.00     0.135 C 
ATOM      2  O1  OHN d          44.328   1.015   6.706  0.00  0.00    -0.297 OA
ENDROOT
BRANCH   1   3
ATOM      3  C11 OHN d          44.049   2.964   8.027  0.00  0.00     0.181 C 
BRANCH   3   4
ATOM      4  C12 OHN d          42.588   2.864   8.379  0.00  0.00     0.225 C 
ATOM      5  N1  OHN d          41.819   2.008   7.719  0.00  0.00    -0.347 N 
ATOM      6  H19 OHN d          42.180   1.436   6.969  0.00  0.00     0.163 HD
ATOM      7  O2  OHN d          42.169   3.581   9.256  0.00  0.00    -0.273 OA
BRANCH   5   8
ATOM      8  C13 OHN d          40.447   1.940   8.131  0.00  0.00     0.186 C 
ATOM      9  C14 OHN d          39.431   2.008   6.993  0.00  0.00     0.062 C 
ATOM     10  C15 OHN d          38.306   1.010   7.317  0.00  0.00     0.181 C 
ATOM     11  O4  OHN d          38.865   0.113   8.260  0.00  0.00    -0.320 OA
ATOM     12  C16 OHN d          40.099   0.637   8.741  0.00  0.00     0.281 C 
ATOM     13  O3  OHN d          40.767   0.077   9.568  0.00  0.00    -0.263 OA
ENDBRANCH   5   8
ENDBRANCH   3   4
ENDBRANCH   1   3
BRANCH   1  14
ATOM     14  C9  OHN d          45.576   1.025   8.707  0.00  0.00     0.079 C 
BRANCH  14  15
ATOM     15  C8  OHN d          46.804   1.885   8.880  0.00  0.00     0.007 C 
BRANCH  15  16
ATOM     16  C7  OHN d          47.920   1.105   8.201  0.00  0.00     0.000 C 
BRANCH  16  17
ATOM     17  C6  OHN d          48.012   1.496   6.723  0.00  0.00     0.000 C 
BRANCH  17  18
ATOM     18  C5  OHN d          47.957   3.012   6.620  0.00  0.00     0.000 C 
BRANCH  18  19
ATOM     19  C4  OHN d          49.355   3.564   6.446  0.00  0.00     0.000 C 
BRANCH  19  20
ATOM     20  C3  OHN d          49.769   4.327   7.689  0.00  0.00    -0.000 C 
BRANCH  20  21
ATOM     21  C2  OHN d          50.806   3.533   8.448  0.00  0.00    -0.005 C 
ATOM     22  C1  OHN d          50.297   3.359   9.853  0.00  0.00     0.005 C 
ENDBRANCH  20  21
ENDBRANCH  19  20
ENDBRANCH  18  19
ENDBRANCH  17  18
ENDBRANCH  16  17
ENDBRANCH  15  16
ENDBRANCH  14  15
ENDBRANCH   1  14
TORSDOF 11
ENDMDL
MODEL 12
REMARK VINA RESULT:      -4.6      1.535      2.908
REMARK  11 active torsions:
REMARK  status: ('A' for Active; 'I' for Inactive)
REMARK    1  A    between atoms: C3_3  and  C2_2 
REMARK    2  A    between atoms: C4_4  and  C3_3 
REMARK    3  A    between atoms: C5_5  and  C4_4 
REMARK    4  A    between atoms: C6_6  and  C5_5 
REMARK    5  A    between atoms: C7_7  and  C6_6 
REMARK    6  A    between atoms: C8_8  and  C7_7 
REMARK    7  A    between atoms: C9_9  and  C8_8 
REMARK    8  A    between atoms: C10_10  and  C9_9 
REMARK    9  A    between atoms: C11_12  and  C10_10 
REMARK   10  A    between atoms: C11_12  and  C12_13 
REMARK       I    between atoms: C12_13  and  N1_15 
REMARK   11  A    between atoms: C13_16  and  N1_15 
ROOT
ATOM      1  C10 OHN d          44.215   1.403   7.941  0.00  0.00     0.135 C 
ATOM      2  O1  OHN d          44.184   0.989   6.795  0.00  0.00    -0.297 OA
ENDROOT
BRANCH   1   3
ATOM      3  C11 OHN d          43.703   2.760   8.296  0.00  0.00     0.181 C 
BRANCH   3   4
ATOM      4  C12 OHN d          42.226   2.706   8.586  0.00  0.00     0.225 C 
ATOM      5  N1  OHN d          41.487   1.764   8.014  0.00  0.00    -0.347 N 
ATOM      6  H19 OHN d          41.882   1.096   7.368  0.00  0.00     0.163 HD
ATOM      7  O2  OHN d          41.768   3.535   9.336  0.00  0.00    -0.273 OA
BRANCH   5   8
ATOM      8  C13 OHN d          40.096   1.750   8.363  0.00  0.00     0.186 C 
ATOM      9  C14 OHN d          39.140   1.582   7.185  0.00  0.00     0.062 C 
ATOM     10  C15 OHN d          38.009   0.643   7.638  0.00  0.00     0.181 C 
ATOM     11  O4  OHN d          38.527  -0.049   8.759  0.00  0.00    -0.320 OA
ATOM     12  C16 OHN d          39.729   0.580   9.192  0.00  0.00     0.281 C 
ATOM     13  O3  OHN d          40.359   0.199  10.142  0.00  0.00    -0.263 OA
ENDBRANCH   5   8
ENDBRANCH   3   4
ENDBRANCH   1   3
BRANCH   1  14
ATOM     14  C9  OHN d          44.828   0.580   9.027  0.00  0.00     0.079 C 
BRANCH  14  15
ATOM     15  C8  OHN d          45.110   1.391  10.269  0.00  0.00     0.007 C 
BRANCH  15  16
ATOM     16  C7  OHN d          46.617   1.306  10.452  0.00  0.00     0.000 C 
BRANCH  16  17
ATOM     17  C6  OHN d          47.155   0.026   9.803  0.00  0.00     0.000 C 
BRANCH  17  18
ATOM     18  C5  OHN d          48.459   0.356   9.094  0.00  0.00     0.000 C 
BRANCH  18  19
ATOM     19  C4  OHN d          48.378   1.742   8.492  0.00  0.00     0.000 C 
BRANCH  19  20
ATOM     20  C3  OHN d          47.853   1.658   7.071  0.00  0.00    -0.000 C 
BRANCH  20  21
ATOM     21  C2  OHN d          48.263   2.897   6.308  0.00  0.00    -0.005 C 
ATOM     22  C1  OHN d          49.399   3.531   7.062  0.00  0.00     0.005 C 
ENDBRANCH  20  21
ENDBRANCH  19  20
ENDBRANCH  18  19
ENDBRANCH  17  18
ENDBRANCH  16  17
ENDBRANCH  15  16
ENDBRANCH  14  15
ENDBRANCH   1  14
TORSDOF 11
ENDMDL
MODEL 13
REMARK VINA RESULT:      -4.6      2.698      7.468
REMARK  11 active torsions:
REMARK  status: ('A' for Active; 'I' for Inactive)
REMARK    1  A    between atoms: C3_3  and  C2_2 
REMARK    2  A    between atoms: C4_4  and  C3_3 
REMARK    3  A    between atoms: C5_5  and  C4_4 
REMARK    4  A    between atoms: C6_6  and  C5_5 
REMARK    5  A    between atoms: C7_7  and  C6_6 
REMARK    6  A    between atoms: C8_8  and  C7_7 
REMARK    7  A    between atoms: C9_9  and  C8_8 
REMARK    8  A    between atoms: C10_10  and  C9_9 
REMARK    9  A    between atoms: C11_12  and  C10_10 
REMARK   10  A    between atoms: C11_12  and  C12_13 
REMARK       I    between atoms: C12_13  and  N1_15 
REMARK   11  A    between atoms: C13_16  and  N1_15 
ROOT
ATOM      1  C10 OHN d          42.415   2.246   7.835  0.00  0.00     0.135 C 
ATOM      2  O1  OHN d          42.903   3.185   8.439  0.00  0.00    -0.297 OA
ENDROOT
BRANCH   1   3
ATOM      3  C11 OHN d          43.247   1.096   7.372  0.00  0.00     0.181 C 
BRANCH   3   4
ATOM      4  C12 OHN d          44.665   1.244   7.860  0.00  0.00     0.225 C 
ATOM      5  N1  OHN d          45.495   2.048   7.209  0.00  0.00    -0.347 N 
ATOM      6  H19 OHN d          45.211   2.548   6.379  0.00  0.00     0.163 HD
ATOM      7  O2  OHN d          44.994   0.611   8.835  0.00  0.00    -0.273 OA
BRANCH   5   8
ATOM      8  C13 OHN d          46.818   2.167   7.750  0.00  0.00     0.186 C 
ATOM      9  C14 OHN d          47.941   2.127   6.716  0.00  0.00     0.062 C 
ATOM     10  C15 OHN d          48.994   3.166   7.136  0.00  0.00     0.181 C 
ATOM     11  O4  OHN d          48.316   4.051   8.010  0.00  0.00    -0.320 OA
ATOM     12  C16 OHN d          47.060   3.487   8.376  0.00  0.00     0.281 C 
ATOM     13  O3  OHN d          46.296   4.029   9.128  0.00  0.00    -0.263 OA
ENDBRANCH   5   8
ENDBRANCH   3   4
ENDBRANCH   1   3
BRANCH   1  14
ATOM     14  C9  OHN d          40.962   2.245   7.482  0.00  0.00     0.079 C 
BRANCH  14  15
ATOM     15  C8  OHN d          40.097   2.719   8.624  0.00  0.00     0.007 C 
BRANCH  15  16
ATOM     16  C7  OHN d          39.053   1.627   8.796  0.00  0.00     0.000 C 
BRANCH  16  17
ATOM     17  C6  OHN d          38.980   0.764   7.532  0.00  0.00     0.000 C 
BRANCH  17  18
ATOM     18  C5  OHN d          38.865  -0.694   7.949  0.00  0.00     0.000 C 
BRANCH  18  19
ATOM     19  C4  OHN d          40.224  -1.354   7.881  0.00  0.00     0.000 C 
BRANCH  19  20
ATOM     20  C3  OHN d          40.571  -1.963   9.226  0.00  0.00    -0.000 C 
BRANCH  20  21
ATOM     21  C2  OHN d          41.949  -1.507   9.647  0.00  0.00    -0.005 C 
ATOM     22  C1  OHN d          41.773  -0.292  10.515  0.00  0.00     0.005 C 
ENDBRANCH  20  21
ENDBRANCH  19  20
ENDBRANCH  18  19
ENDBRANCH  17  18
ENDBRANCH  16  17
ENDBRANCH  15  16
ENDBRANCH  14  15
ENDBRANCH   1  14
TORSDOF 11
ENDMDL
MODEL 14
REMARK VINA RESULT:      -4.6      2.043      3.715
REMARK  11 active torsions:
REMARK  status: ('A' for Active; 'I' for Inactive)
REMARK    1  A    between atoms: C3_3  and  C2_2 
REMARK    2  A    between atoms: C4_4  and  C3_3 
REMARK    3  A    between atoms: C5_5  and  C4_4 
REMARK    4  A    between atoms: C6_6  and  C5_5 
REMARK    5  A    between atoms: C7_7  and  C6_6 
REMARK    6  A    between atoms: C8_8  and  C7_7 
REMARK    7  A    between atoms: C9_9  and  C8_8 
REMARK    8  A    between atoms: C10_10  and  C9_9 
REMARK    9  A    between atoms: C11_12  and  C10_10 
REMARK   10  A    between atoms: C11_12  and  C12_13 
REMARK       I    between atoms: C12_13  and  N1_15 
REMARK   11  A    between atoms: C13_16  and  N1_15 
ROOT
ATOM      1  C10 OHN d          41.392   2.419   8.896  0.00  0.00     0.135 C 
ATOM      2  O1  OHN d          41.457   2.055  10.057  0.00  0.00    -0.297 OA
ENDROOT
BRANCH   1   3
ATOM      3  C11 OHN d          40.090   2.783   8.261  0.00  0.00     0.181 C 
BRANCH   3   4
ATOM      4  C12 OHN d          39.505   1.594   7.544  0.00  0.00     0.225 C 
ATOM      5  N1  OHN d          39.565   0.398   8.115  0.00  0.00    -0.347 N 
ATOM      6  H19 OHN d          40.013   0.256   9.009  0.00  0.00     0.163 HD
ATOM      7  O2  OHN d          39.003   1.780   6.461  0.00  0.00    -0.273 OA
BRANCH   5   8
ATOM      8  C13 OHN d          38.957  -0.681   7.392  0.00  0.00     0.186 C 
ATOM      9  C14 OHN d          39.739  -1.992   7.418  0.00  0.00     0.062 C 
ATOM     10  C15 OHN d          38.720  -3.135   7.567  0.00  0.00     0.181 C 
ATOM     11  O4  OHN d          37.550  -2.526   8.082  0.00  0.00    -0.320 OA
ATOM     12  C16 OHN d          37.670  -1.110   7.985  0.00  0.00     0.281 C 
ATOM     13  O3  OHN d          36.802  -0.356   8.335  0.00  0.00    -0.263 OA
ENDBRANCH   5   8
ENDBRANCH   3   4
ENDBRANCH   1   3
BRANCH   1  14
ATOM     14  C9  OHN d          42.620   2.457   8.044  0.00  0.00     0.079 C 
BRANCH  14  15
ATOM     15  C8  OHN d          43.257   1.096   7.901  0.00  0.00     0.007 C 
BRANCH  15  16
ATOM     16  C7  OHN d          44.305   1.273   6.813  0.00  0.00     0.000 C 
BRANCH  16  17
ATOM     17  C6  OHN d          45.390   2.249   7.281  0.00  0.00     0.000 C 
BRANCH  17  18
ATOM     18  C5  OHN d          46.293   1.529   8.270  0.00  0.00     0.000 C 
BRANCH  18  19
ATOM     19  C4  OHN d          47.739   1.693   7.854  0.00  0.00     0.000 C 
BRANCH  19  20
ATOM     20  C3  OHN d          47.815   2.412   6.521  0.00  0.00    -0.000 C 
BRANCH  20  21
ATOM     21  C2  OHN d          49.046   3.289   6.490  0.00  0.00    -0.005 C 
ATOM     22  C1  OHN d          49.604   3.325   7.886  0.00  0.00     0.005 C 
ENDBRANCH  20  21
ENDBRANCH  19  20
ENDBRANCH  18  19
ENDBRANCH  17  18
ENDBRANCH  16  17
ENDBRANCH  15  16
ENDBRANCH  14  15
ENDBRANCH   1  14
TORSDOF 11
ENDMDL
MODEL 15
REMARK VINA RESULT:      -4.5      2.511      4.323
REMARK  11 active torsions:
REMARK  status: ('A' for Active; 'I' for Inactive)
REMARK    1  A    between atoms: C3_3  and  C2_2 
REMARK    2  A    between atoms: C4_4  and  C3_3 
REMARK    3  A    between atoms: C5_5  and  C4_4 
REMARK    4  A    between atoms: C6_6  and  C5_5 
REMARK    5  A    between atoms: C7_7  and  C6_6 
REMARK    6  A    between atoms: C8_8  and  C7_7 
REMARK    7  A    between atoms: C9_9  and  C8_8 
REMARK    8  A    between atoms: C10_10  and  C9_9 
REMARK    9  A    between atoms: C11_12  and  C10_10 
REMARK   10  A    between atoms: C11_12  and  C12_13 
REMARK       I    between atoms: C12_13  and  N1_15 
REMARK   11  A    between atoms: C13_16  and  N1_15 
ROOT
ATOM      1  C10 OHN d          42.890   0.057  10.575  0.00  0.00     0.135 C 
ATOM      2  O1  OHN d          41.925   0.292  11.282  0.00  0.00    -0.297 OA
ENDROOT
BRANCH   1   3
ATOM      3  C11 OHN d          42.922  -1.125   9.663  0.00  0.00     0.181 C 
BRANCH   3   4
ATOM      4  C12 OHN d          41.564  -1.773   9.594  0.00  0.00     0.225 C 
ATOM      5  N1  OHN d          40.578  -1.146   8.964  0.00  0.00    -0.347 N 
ATOM      6  H19 OHN d          40.705  -0.234   8.550  0.00  0.00     0.163 HD
ATOM      7  O2  OHN d          41.425  -2.849  10.125  0.00  0.00    -0.273 OA
BRANCH   5   8
ATOM      8  C13 OHN d          39.322  -1.837   8.907  0.00  0.00     0.186 C 
ATOM      9  C14 OHN d          38.101  -0.977   9.223  0.00  0.00     0.062 C 
ATOM     10  C15 OHN d          36.982  -1.387   8.251  0.00  0.00     0.181 C 
ATOM     11  O4  OHN d          37.641  -2.034   7.177  0.00  0.00    -0.320 OA
ATOM     12  C16 OHN d          38.992  -2.304   7.541  0.00  0.00     0.281 C 
ATOM     13  O3  OHN d          39.763  -2.866   6.812  0.00  0.00    -0.263 OA
ENDBRANCH   5   8
ENDBRANCH   3   4
ENDBRANCH   1   3
BRANCH   1  14
ATOM     14  C9  OHN d          44.107   0.921  10.645  0.00  0.00     0.079 C 
BRANCH  14  15
ATOM     15  C8  OHN d          45.145   0.530   9.621  0.00  0.00     0.007 C 
BRANCH  15  16
ATOM     16  C7  OHN d          45.575   1.843   8.986  0.00  0.00     0.000 C 
BRANCH  16  17
ATOM     17  C6  OHN d          45.526   1.731   7.459  0.00  0.00     0.000 C 
BRANCH  17  18
ATOM     18  C5  OHN d          44.130   1.286   7.052  0.00  0.00     0.000 C 
BRANCH  18  19
ATOM     19  C4  OHN d          43.176   2.457   7.132  0.00  0.00     0.000 C 
BRANCH  19  20
ATOM     20  C3  OHN d          41.801   1.976   7.550  0.00  0.00    -0.000 C 
BRANCH  20  21
ATOM     21  C2  OHN d          41.319   2.788   8.730  0.00  0.00    -0.005 C 
ATOM     22  C1  OHN d          39.840   2.550   8.862  0.00  0.00     0.005 C 
ENDBRANCH  20  21
ENDBRANCH  19  20
ENDBRANCH  18  19
ENDBRANCH  17  18
ENDBRANCH  16  17
ENDBRANCH  15  16
ENDBRANCH  14  15
ENDBRANCH   1  14
TORSDOF 11
ENDMDL
MODEL 16
REMARK VINA RESULT:      -4.5      3.219      4.706
REMARK  11 active torsions:
REMARK  status: ('A' for Active; 'I' for Inactive)
REMARK    1  A    between atoms: C3_3  and  C2_2 
REMARK    2  A    between atoms: C4_4  and  C3_3 
REMARK    3  A    between atoms: C5_5  and  C4_4 
REMARK    4  A    between atoms: C6_6  and  C5_5 
REMARK    5  A    between atoms: C7_7  and  C6_6 
REMARK    6  A    between atoms: C8_8  and  C7_7 
REMARK    7  A    between atoms: C9_9  and  C8_8 
REMARK    8  A    between atoms: C10_10  and  C9_9 
REMARK    9  A    between atoms: C11_12  and  C10_10 
REMARK   10  A    between atoms: C11_12  and  C12_13 
REMARK       I    between atoms: C12_13  and  N1_15 
REMARK   11  A    between atoms: C13_16  and  N1_15 
ROOT
ATOM      1  C10 OHN d          39.884   2.792   9.619  0.00  0.00     0.135 C 
ATOM      2  O1  OHN d          38.830   2.497  10.156  0.00  0.00    -0.297 OA
ENDROOT
BRANCH   1   3
ATOM      3  C11 OHN d          40.009   2.877   8.134  0.00  0.00     0.181 C 
BRANCH   3   4
ATOM      4  C12 OHN d          39.447   1.637   7.488  0.00  0.00     0.225 C 
ATOM      5  N1  OHN d          39.572   0.470   8.105  0.00  0.00    -0.347 N 
ATOM      6  H19 OHN d          40.056   0.383   8.987  0.00  0.00     0.163 HD
ATOM      7  O2  OHN d          38.901   1.758   6.416  0.00  0.00    -0.273 OA
BRANCH   5   8
ATOM      8  C13 OHN d          38.982  -0.661   7.450  0.00  0.00     0.186 C 
ATOM      9  C14 OHN d          39.825  -1.934   7.484  0.00  0.00     0.062 C 
ATOM     10  C15 OHN d          38.868  -3.115   7.721  0.00  0.00     0.181 C 
ATOM     11  O4  OHN d          37.696  -2.540   8.269  0.00  0.00    -0.320 OA
ATOM     12  C16 OHN d          37.745  -1.125   8.117  0.00  0.00     0.281 C 
ATOM     13  O3  OHN d          36.860  -0.399   8.482  0.00  0.00    -0.263 OA
ENDBRANCH   5   8
ENDBRANCH   3   4
ENDBRANCH   1   3
BRANCH   1  14
ATOM     14  C9  OHN d          41.112   3.021  10.439  0.00  0.00     0.079 C 
BRANCH  14  15
ATOM     15  C8  OHN d          41.838   4.283  10.041  0.00  0.00     0.007 C 
BRANCH  15  16
ATOM     16  C7  OHN d          43.313   3.939  10.178  0.00  0.00     0.000 C 
BRANCH  16  17
ATOM     17  C6  OHN d          44.054   4.266   8.877  0.00  0.00     0.000 C 
BRANCH  17  18
ATOM     18  C5  OHN d          44.630   2.976   8.313  0.00  0.00     0.000 C 
BRANCH  18  19
ATOM     19  C4  OHN d          43.760   2.482   7.178  0.00  0.00     0.000 C 
BRANCH  19  20
ATOM     20  C3  OHN d          43.168   1.131   7.531  0.00  0.00    -0.000 C 
BRANCH  20  21
ATOM     21  C2  OHN d          43.895   0.557   8.725  0.00  0.00    -0.005 C 
ATOM     22  C1  OHN d          42.894  -0.233   9.521  0.00  0.00     0.005 C 
ENDBRANCH  20  21
ENDBRANCH  19  20
ENDBRANCH  18  19
ENDBRANCH  17  18
ENDBRANCH  16  17
ENDBRANCH  15  16
ENDBRANCH  14  15
ENDBRANCH   1  14
TORSDOF 11
ENDMDL
MODEL 17
REMARK VINA RESULT:      -4.5      3.211      4.865
REMARK  11 active torsions:
REMARK  status: ('A' for Active; 'I' for Inactive)
REMARK    1  A    between atoms: C3_3  and  C2_2 
REMARK    2  A    between atoms: C4_4  and  C3_3 
REMARK    3  A    between atoms: C5_5  and  C4_4 
REMARK    4  A    between atoms: C6_6  and  C5_5 
REMARK    5  A    between atoms: C7_7  and  C6_6 
REMARK    6  A    between atoms: C8_8  and  C7_7 
REMARK    7  A    between atoms: C9_9  and  C8_8 
REMARK    8  A    between atoms: C10_10  and  C9_9 
REMARK    9  A    between atoms: C11_12  and  C10_10 
REMARK   10  A    between atoms: C11_12  and  C12_13 
REMARK       I    between atoms: C12_13  and  N1_15 
REMARK   11  A    between atoms: C13_16  and  N1_15 
ROOT
ATOM      1  C10 OHN d          39.244   1.722   7.401  0.00  0.00     0.135 C 
ATOM      2  O1  OHN d          38.679   1.776   6.322  0.00  0.00    -0.297 OA
ENDROOT
BRANCH   1   3
ATOM      3  C11 OHN d          38.523   1.313   8.642  0.00  0.00     0.181 C 
BRANCH   3   4
ATOM      4  C12 OHN d          38.256  -0.170   8.630  0.00  0.00     0.225 C 
ATOM      5  N1  OHN d          38.010  -0.774   7.475  0.00  0.00    -0.347 N 
ATOM      6  H19 OHN d          37.973  -0.265   6.604  0.00  0.00     0.163 HD
ATOM      7  O2  OHN d          38.272  -0.754   9.687  0.00  0.00    -0.273 OA
BRANCH   5   8
ATOM      8  C13 OHN d          37.799  -2.192   7.534  0.00  0.00     0.186 C 
ATOM      9  C14 OHN d          36.573  -2.691   6.774  0.00  0.00     0.062 C 
ATOM     10  C15 OHN d          36.962  -4.008   6.082  0.00  0.00     0.181 C 
ATOM     11  O4  OHN d          38.377  -3.996   6.027  0.00  0.00    -0.320 OA
ATOM     12  C16 OHN d          38.876  -2.956   6.863  0.00  0.00     0.281 C 
ATOM     13  O3  OHN d          40.049  -2.744   7.010  0.00  0.00    -0.263 OA
ENDBRANCH   5   8
ENDBRANCH   3   4
ENDBRANCH   1   3
BRANCH   1  14
ATOM     14  C9  OHN d          40.678   2.128   7.525  0.00  0.00     0.079 C 
BRANCH  14  15
ATOM     15  C8  OHN d          40.950   2.880   8.805  0.00  0.00     0.007 C 
BRANCH  15  16
ATOM     16  C7  OHN d          42.456   3.089   8.817  0.00  0.00     0.000 C 
BRANCH  16  17
ATOM     17  C6  OHN d          43.118   2.214   7.747  0.00  0.00     0.000 C 
BRANCH  17  18
ATOM     18  C5  OHN d          44.556   1.948   8.163  0.00  0.00     0.000 C 
BRANCH  18  19
ATOM     19  C4  OHN d          44.584   1.339   9.548  0.00  0.00     0.000 C 
BRANCH  19  20
ATOM     20  C3  OHN d          44.087  -0.093   9.493  0.00  0.00    -0.000 C 
BRANCH  20  21
ATOM     21  C2  OHN d          42.856  -0.234  10.359  0.00  0.00    -0.005 C 
ATOM     22  C1  OHN d          41.799  -0.905   9.526  0.00  0.00     0.005 C 
ENDBRANCH  20  21
ENDBRANCH  19  20
ENDBRANCH  18  19
ENDBRANCH  17  18
ENDBRANCH  16  17
ENDBRANCH  15  16
ENDBRANCH  14  15
ENDBRANCH   1  14
TORSDOF 11
ENDMDL
MODEL 18
REMARK VINA RESULT:      -4.5      1.833      3.255
REMARK  11 active torsions:
REMARK  status: ('A' for Active; 'I' for Inactive)
REMARK    1  A    between atoms: C3_3  and  C2_2 
REMARK    2  A    between atoms: C4_4  and  C3_3 
REMARK    3  A    between atoms: C5_5  and  C4_4 
REMARK    4  A    between atoms: C6_6  and  C5_5 
REMARK    5  A    between atoms: C7_7  and  C6_6 
REMARK    6  A    between atoms: C8_8  and  C7_7 
REMARK    7  A    between atoms: C9_9  and  C8_8 
REMARK    8  A    between atoms: C10_10  and  C9_9 
REMARK    9  A    between atoms: C11_12  and  C10_10 
REMARK   10  A    between atoms: C11_12  and  C12_13 
REMARK       I    between atoms: C12_13  and  N1_15 
REMARK   11  A    between atoms: C13_16  and  N1_15 
ROOT
ATOM      1  C10 OHN d          42.571  -0.690   9.721  0.00  0.00     0.135 C 
ATOM      2  O1  OHN d          42.503  -1.906   9.771  0.00  0.00    -0.297 OA
ENDROOT
BRANCH   1   3
ATOM      3  C11 OHN d          41.346   0.162   9.729  0.00  0.00     0.181 C 
BRANCH   3   4
ATOM      4  C12 OHN d          40.468  -0.168   8.550  0.00  0.00     0.225 C 
ATOM      5  N1  OHN d          39.895  -1.362   8.482  0.00  0.00    -0.347 N 
ATOM      6  H19 OHN d          40.049  -2.068   9.188  0.00  0.00     0.163 HD
ATOM      7  O2  OHN d          40.324   0.679   7.700  0.00  0.00    -0.273 OA
BRANCH   5   8
ATOM      8  C13 OHN d          39.044  -1.595   7.351  0.00  0.00     0.186 C 
ATOM      9  C14 OHN d          39.241  -2.945   6.667  0.00  0.00     0.062 C 
ATOM     10  C15 OHN d          37.850  -3.474   6.279  0.00  0.00     0.181 C 
ATOM     11  O4  OHN d          36.940  -2.763   7.098  0.00  0.00    -0.320 OA
ATOM     12  C16 OHN d          37.613  -1.672   7.721  0.00  0.00     0.281 C 
ATOM     13  O3  OHN d          37.060  -0.897   8.453  0.00  0.00    -0.263 OA
ENDBRANCH   5   8
ENDBRANCH   3   4
ENDBRANCH   1   3
BRANCH   1  14
ATOM     14  C9  OHN d          43.896  -0.012   9.588  0.00  0.00     0.079 C 
BRANCH  14  15
ATOM     15  C8  OHN d          43.781   1.341   8.927  0.00  0.00     0.007 C 
BRANCH  15  16
ATOM     16  C7  OHN d          43.980   1.063   7.445  0.00  0.00     0.000 C 
BRANCH  16  17
ATOM     17  C6  OHN d          44.766   2.208   6.796  0.00  0.00     0.000 C 
BRANCH  17  18
ATOM     18  C5  OHN d          45.954   2.543   7.684  0.00  0.00     0.000 C 
BRANCH  18  19
ATOM     19  C4  OHN d          47.241   2.207   6.965  0.00  0.00     0.000 C 
BRANCH  19  20
ATOM     20  C3  OHN d          48.136   1.377   7.865  0.00  0.00    -0.000 C 
BRANCH  20  21
ATOM     21  C2  OHN d          47.488   1.228   9.222  0.00  0.00    -0.005 C 
ATOM     22  C1  OHN d          47.664  -0.203   9.648  0.00  0.00     0.005 C 
ENDBRANCH  20  21
ENDBRANCH  19  20
ENDBRANCH  18  19
ENDBRANCH  17  18
ENDBRANCH  16  17
ENDBRANCH  15  16
ENDBRANCH  14  15
ENDBRANCH   1  14
TORSDOF 11
ENDMDL
MODEL 19
REMARK VINA RESULT:      -4.4      1.782      3.419
REMARK  11 active torsions:
REMARK  status: ('A' for Active; 'I' for Inactive)
REMARK    1  A    between atoms: C3_3  and  C2_2 
REMARK    2  A    between atoms: C4_4  and  C3_3 
REMARK    3  A    between atoms: C5_5  and  C4_4 
REMARK    4  A    between atoms: C6_6  and  C5_5 
REMARK    5  A    between atoms: C7_7  and  C6_6 
REMARK    6  A    between atoms: C8_8  and  C7_7 
REMARK    7  A    between atoms: C9_9  and  C8_8 
REMARK    8  A    between atoms: C10_10  and  C9_9 
REMARK    9  A    between atoms: C11_12  and  C10_10 
REMARK   10  A    between atoms: C11_12  and  C12_13 
REMARK       I    between atoms: C12_13  and  N1_15 
REMARK   11  A    between atoms: C13_16  and  N1_15 
ROOT
ATOM      1  C10 OHN d          44.246   3.576   9.061  0.00  0.00     0.135 C 
ATOM      2  O1  OHN d          43.371   4.261   9.562  0.00  0.00    -0.297 OA
ENDROOT
BRANCH   1   3
ATOM      3  C11 OHN d          44.121   3.041   7.673  0.00  0.00     0.181 C 
BRANCH   3   4
ATOM      4  C12 OHN d          43.565   1.641   7.697  0.00  0.00     0.225 C 
ATOM      5  N1  OHN d          42.708   1.301   8.652  0.00  0.00    -0.347 N 
ATOM      6  H19 OHN d          42.436   1.946   9.378  0.00  0.00     0.163 HD
ATOM      7  O2  OHN d          43.930   0.875   6.838  0.00  0.00    -0.273 OA
BRANCH   5   8
ATOM      8  C13 OHN d          42.192  -0.036   8.592  0.00  0.00     0.186 C 
ATOM      9  C14 OHN d          42.712  -0.974   9.679  0.00  0.00     0.062 C 
ATOM     10  C15 OHN d          41.531  -1.844  10.143  0.00  0.00     0.181 C 
ATOM     11  O4  OHN d          40.370  -1.140   9.742  0.00  0.00    -0.320 OA
ATOM     12  C16 OHN d          40.734  -0.095   8.844  0.00  0.00     0.281 C 
ATOM     13  O3  OHN d          39.930   0.641   8.339  0.00  0.00    -0.263 OA
ENDBRANCH   5   8
ENDBRANCH   3   4
ENDBRANCH   1   3
BRANCH   1  14
ATOM     14  C9  OHN d          45.456   3.197   9.852  0.00  0.00     0.079 C 
BRANCH  14  15
ATOM     15  C8  OHN d          45.117   2.304  11.021  0.00  0.00     0.007 C 
BRANCH  15  16
ATOM     16  C7  OHN d          46.254   1.296  11.079  0.00  0.00     0.000 C 
BRANCH  16  17
ATOM     17  C6  OHN d          46.296   0.474   9.786  0.00  0.00     0.000 C 
BRANCH  17  18
ATOM     18  C5  OHN d          47.731   0.033   9.541  0.00  0.00     0.000 C 
BRANCH  18  19
ATOM     19  C4  OHN d          48.414   1.009   8.609  0.00  0.00     0.000 C 
BRANCH  19  20
ATOM     20  C3  OHN d          47.463   1.417   7.500  0.00  0.00    -0.000 C 
BRANCH  20  21
ATOM     21  C2  OHN d          48.055   2.573   6.727  0.00  0.00    -0.005 C 
ATOM     22  C1  OHN d          49.059   3.243   7.624  0.00  0.00     0.005 C 
ENDBRANCH  20  21
ENDBRANCH  19  20
ENDBRANCH  18  19
ENDBRANCH  17  18
ENDBRANCH  16  17
ENDBRANCH  15  16
ENDBRANCH  14  15
ENDBRANCH   1  14
TORSDOF 11
ENDMDL
