MODEL 1
REMARK VINA RESULT:      -5.0      0.000      0.000
REMARK  11 active torsions:
REMARK  status: ('A' for Active; 'I' for Inactive)
REMARK    1  A    between atoms: C3_3  and  C2_2 
REMARK    2  A    between atoms: C4_4  and  C3_3 
REMARK    3  A    between atoms: C5_5  and  C4_4 
REMARK    4  A    between atoms: C6_6  and  C5_5 
REMARK    5  A    between atoms: C7_7  and  C6_6 
REMARK    6  A    between atoms: C8_8  and  C7_7 
REMARK    7  A    between atoms: C9_9  and  C8_8 
REMARK    8  A    between atoms: C10_10  and  C9_9 
REMARK    9  A    between atoms: C11_12  and  C10_10 
REMARK   10  A    between atoms: C11_12  and  C12_13 
REMARK       I    between atoms: C12_13  and  N1_15 
REMARK   11  A    between atoms: C13_16  and  N1_15 
ROOT
ATOM      1  C10 OHN d          37.882  21.644  10.947  0.00  0.00     0.135 C 
ATOM      2  O1  OHN d          38.601  21.281  10.032  0.00  0.00    -0.297 OA
ENDROOT
BRANCH   1   3
ATOM      3  C11 OHN d          37.738  20.838  12.195  0.00  0.00     0.181 C 
BRANCH   3   4
ATOM      4  C12 OHN d          39.083  20.346  12.662  0.00  0.00     0.225 C 
ATOM      5  N1  OHN d          39.599  19.252  12.116  0.00  0.00    -0.347 N 
ATOM      6  H19 OHN d          39.104  18.724  11.412  0.00  0.00     0.163 HD
ATOM      7  O2  OHN d          39.642  20.974  13.529  0.00  0.00    -0.273 OA
BRANCH   5   8
ATOM      8  C13 OHN d          40.897  18.863  12.584  0.00  0.00     0.186 C 
ATOM      9  C14 OHN d          40.995  17.423  13.083  0.00  0.00     0.062 C 
ATOM     10  C15 OHN d          42.341  16.857  12.601  0.00  0.00     0.181 C 
ATOM     11  O4  OHN d          42.733  17.692  11.527  0.00  0.00    -0.320 OA
ATOM     12  C16 OHN d          41.912  18.856  11.505  0.00  0.00     0.281 C 
ATOM     13  O3  OHN d          42.051  19.737  10.701  0.00  0.00    -0.263 OA
ENDBRANCH   5   8
ENDBRANCH   3   4
ENDBRANCH   1   3
BRANCH   1  14
ATOM     14  C9  OHN d          37.068  22.891  10.820  0.00  0.00     0.079 C 
BRANCH  14  15
ATOM     15  C8  OHN d          36.154  23.099  12.004  0.00  0.00     0.007 C 
BRANCH  15  16
ATOM     16  C7  OHN d          34.995  23.917  11.457  0.00  0.00     0.000 C 
BRANCH  16  17
ATOM     17  C6  OHN d          35.291  24.356  10.019  0.00  0.00     0.000 C 
BRANCH  17  18
ATOM     18  C5  OHN d          34.848  25.801   9.853  0.00  0.00     0.000 C 
BRANCH  18  19
ATOM     19  C4  OHN d          35.470  26.654  10.937  0.00  0.00     0.000 C 
BRANCH  19  20
ATOM     20  C3  OHN d          36.944  26.863  10.648  0.00  0.00    -0.000 C 
BRANCH  20  21
ATOM     21  C2  OHN d          37.750  26.562  11.891  0.00  0.00    -0.005 C 
ATOM     22  C1  OHN d          38.834  27.600  11.982  0.00  0.00     0.005 C 
ENDBRANCH  20  21
ENDBRANCH  19  20
ENDBRANCH  18  19
ENDBRANCH  17  18
ENDBRANCH  16  17
ENDBRANCH  15  16
ENDBRANCH  14  15
ENDBRANCH   1  14
TORSDOF 11
ENDMDL
MODEL 2
REMARK VINA RESULT:      -5.0      1.003      1.097
REMARK  11 active torsions:
REMARK  status: ('A' for Active; 'I' for Inactive)
REMARK    1  A    between atoms: C3_3  and  C2_2 
REMARK    2  A    between atoms: C4_4  and  C3_3 
REMARK    3  A    between atoms: C5_5  and  C4_4 
REMARK    4  A    between atoms: C6_6  and  C5_5 
REMARK    5  A    between atoms: C7_7  and  C6_6 
REMARK    6  A    between atoms: C8_8  and  C7_7 
REMARK    7  A    between atoms: C9_9  and  C8_8 
REMARK    8  A    between atoms: C10_10  and  C9_9 
REMARK    9  A    between atoms: C11_12  and  C10_10 
REMARK   10  A    between atoms: C11_12  and  C12_13 
REMARK       I    between atoms: C12_13  and  N1_15 
REMARK   11  A    between atoms: C13_16  and  N1_15 
ROOT
ATOM      1  C10 OHN d          38.038  21.447  10.787  0.00  0.00     0.135 C 
ATOM      2  O1  OHN d          37.592  20.444  11.317  0.00  0.00    -0.297 OA
ENDROOT
BRANCH   1   3
ATOM      3  C11 OHN d          39.435  21.500  10.265  0.00  0.00     0.181 C 
BRANCH   3   4
ATOM      4  C12 OHN d          40.380  20.819  11.221  0.00  0.00     0.225 C 
ATOM      5  N1  OHN d          40.425  19.493  11.254  0.00  0.00    -0.347 N 
ATOM      6  H19 OHN d          39.827  18.925  10.672  0.00  0.00     0.163 HD
ATOM      7  O2  OHN d          41.064  21.517  11.931  0.00  0.00    -0.273 OA
BRANCH   5   8
ATOM      8  C13 OHN d          41.373  18.914  12.161  0.00  0.00     0.186 C 
ATOM      9  C14 OHN d          40.879  17.670  12.897  0.00  0.00     0.062 C 
ATOM     10  C15 OHN d          42.050  16.675  12.961  0.00  0.00     0.181 C 
ATOM     11  O4  OHN d          42.943  17.085  11.941  0.00  0.00    -0.320 OA
ATOM     12  C16 OHN d          42.567  18.377  11.472  0.00  0.00     0.281 C 
ATOM     13  O3  OHN d          43.176  18.962  10.617  0.00  0.00    -0.263 OA
ENDBRANCH   5   8
ENDBRANCH   3   4
ENDBRANCH   1   3
BRANCH   1  14
ATOM     14  C9  OHN d          37.209  22.687  10.698  0.00  0.00     0.079 C 
BRANCH  14  15
ATOM     15  C8  OHN d          36.450  22.960  11.974  0.00  0.00     0.007 C 
BRANCH  15  16
ATOM     16  C7  OHN d          35.271  23.819  11.545  0.00  0.00     0.000 C 
BRANCH  16  17
ATOM     17  C6  OHN d          35.334  24.085  10.037  0.00  0.00     0.000 C 
BRANCH  17  18
ATOM     18  C5  OHN d          35.046  25.559   9.794  0.00  0.00     0.000 C 
BRANCH  18  19
ATOM     19  C4  OHN d          35.524  26.374  10.975  0.00  0.00     0.000 C 
BRANCH  19  20
ATOM     20  C3  OHN d          36.904  26.934  10.693  0.00  0.00    -0.000 C 
BRANCH  20  21
ATOM     21  C2  OHN d          37.839  26.568  11.823  0.00  0.00    -0.005 C 
ATOM     22  C1  OHN d          38.837  27.685  11.956  0.00  0.00     0.005 C 
ENDBRANCH  20  21
ENDBRANCH  19  20
ENDBRANCH  18  19
ENDBRANCH  17  18
ENDBRANCH  16  17
ENDBRANCH  15  16
ENDBRANCH  14  15
ENDBRANCH   1  14
TORSDOF 11
ENDMDL
MODEL 3
REMARK VINA RESULT:      -5.0      3.233      4.374
REMARK  11 active torsions:
REMARK  status: ('A' for Active; 'I' for Inactive)
REMARK    1  A    between atoms: C3_3  and  C2_2 
REMARK    2  A    between atoms: C4_4  and  C3_3 
REMARK    3  A    between atoms: C5_5  and  C4_4 
REMARK    4  A    between atoms: C6_6  and  C5_5 
REMARK    5  A    between atoms: C7_7  and  C6_6 
REMARK    6  A    between atoms: C8_8  and  C7_7 
REMARK    7  A    between atoms: C9_9  and  C8_8 
REMARK    8  A    between atoms: C10_10  and  C9_9 
REMARK    9  A    between atoms: C11_12  and  C10_10 
REMARK   10  A    between atoms: C11_12  and  C12_13 
REMARK       I    between atoms: C12_13  and  N1_15 
REMARK   11  A    between atoms: C13_16  and  N1_15 
ROOT
ATOM      1  C10 OHN d          39.634  21.150  10.240  0.00  0.00     0.135 C 
ATOM      2  O1  OHN d          39.952  21.491   9.114  0.00  0.00    -0.297 OA
ENDROOT
BRANCH   1   3
ATOM      3  C11 OHN d          40.643  20.652  11.220  0.00  0.00     0.181 C 
BRANCH   3   4
ATOM      4  C12 OHN d          41.802  21.610  11.315  0.00  0.00     0.225 C 
ATOM      5  N1  OHN d          41.579  22.911  11.181  0.00  0.00    -0.347 N 
ATOM      6  H19 OHN d          40.658  23.278  10.992  0.00  0.00     0.163 HD
ATOM      7  O2  OHN d          42.901  21.148  11.508  0.00  0.00    -0.273 OA
BRANCH   5   8
ATOM      8  C13 OHN d          42.722  23.767  11.318  0.00  0.00     0.186 C 
ATOM      9  C14 OHN d          43.297  24.286  10.002  0.00  0.00     0.062 C 
ATOM     10  C15 OHN d          43.697  25.755  10.220  0.00  0.00     0.181 C 
ATOM     11  O4  OHN d          42.968  26.174  11.359  0.00  0.00    -0.320 OA
ATOM     12  C16 OHN d          42.402  25.038  12.006  0.00  0.00     0.281 C 
ATOM     13  O3  OHN d          41.750  25.118  13.012  0.00  0.00    -0.263 OA
ENDBRANCH   5   8
ENDBRANCH   3   4
ENDBRANCH   1   3
BRANCH   1  14
ATOM     14  C9  OHN d          38.199  21.164  10.658  0.00  0.00     0.079 C 
BRANCH  14  15
ATOM     15  C8  OHN d          37.790  22.491  11.251  0.00  0.00     0.007 C 
BRANCH  15  16
ATOM     16  C7  OHN d          36.669  22.987  10.350  0.00  0.00     0.000 C 
BRANCH  16  17
ATOM     17  C6  OHN d          35.889  24.107  11.047  0.00  0.00     0.000 C 
BRANCH  17  18
ATOM     18  C5  OHN d          35.205  24.953   9.984  0.00  0.00     0.000 C 
BRANCH  18  19
ATOM     19  C4  OHN d          35.785  26.350   9.991  0.00  0.00     0.000 C 
BRANCH  19  20
ATOM     20  C3  OHN d          36.305  26.687  11.375  0.00  0.00    -0.000 C 
BRANCH  20  21
ATOM     21  C2  OHN d          37.694  27.272  11.265  0.00  0.00    -0.005 C 
ATOM     22  C1  OHN d          38.589  26.474  12.173  0.00  0.00     0.005 C 
ENDBRANCH  20  21
ENDBRANCH  19  20
ENDBRANCH  18  19
ENDBRANCH  17  18
ENDBRANCH  16  17
ENDBRANCH  15  16
ENDBRANCH  14  15
ENDBRANCH   1  14
TORSDOF 11
ENDMDL
MODEL 4
REMARK VINA RESULT:      -4.9      3.218      4.544
REMARK  11 active torsions:
REMARK  status: ('A' for Active; 'I' for Inactive)
REMARK    1  A    between atoms: C3_3  and  C2_2 
REMARK    2  A    between atoms: C4_4  and  C3_3 
REMARK    3  A    between atoms: C5_5  and  C4_4 
REMARK    4  A    between atoms: C6_6  and  C5_5 
REMARK    5  A    between atoms: C7_7  and  C6_6 
REMARK    6  A    between atoms: C8_8  and  C7_7 
REMARK    7  A    between atoms: C9_9  and  C8_8 
REMARK    8  A    between atoms: C10_10  and  C9_9 
REMARK    9  A    between atoms: C11_12  and  C10_10 
REMARK   10  A    between atoms: C11_12  and  C12_13 
REMARK       I    between atoms: C12_13  and  N1_15 
REMARK   11  A    between atoms: C13_16  and  N1_15 
ROOT
ATOM      1  C10 OHN d          39.782  20.835  11.596  0.00  0.00     0.135 C 
ATOM      2  O1  OHN d          39.919  21.250  12.734  0.00  0.00    -0.297 OA
ENDROOT
BRANCH   1   3
ATOM      3  C11 OHN d          40.957  20.547  10.722  0.00  0.00     0.181 C 
BRANCH   3   4
ATOM      4  C12 OHN d          42.050  21.555  10.962  0.00  0.00     0.225 C 
ATOM      5  N1  OHN d          41.771  22.849  10.872  0.00  0.00    -0.347 N 
ATOM      6  H19 OHN d          40.849  23.179  10.623  0.00  0.00     0.163 HD
ATOM      7  O2  OHN d          43.153  21.138  11.226  0.00  0.00    -0.273 OA
BRANCH   5   8
ATOM      8  C13 OHN d          42.850  23.752  11.149  0.00  0.00     0.186 C 
ATOM      9  C14 OHN d          43.414  24.472   9.926  0.00  0.00     0.062 C 
ATOM     10  C15 OHN d          43.710  25.923  10.340  0.00  0.00     0.181 C 
ATOM     11  O4  OHN d          42.932  26.145  11.503  0.00  0.00    -0.320 OA
ATOM     12  C16 OHN d          42.432  24.900  11.984  0.00  0.00     0.281 C 
ATOM     13  O3  OHN d          41.758  24.808  12.974  0.00  0.00    -0.263 OA
ENDBRANCH   5   8
ENDBRANCH   3   4
ENDBRANCH   1   3
BRANCH   1  14
ATOM     14  C9  OHN d          38.416  20.656  11.016  0.00  0.00     0.079 C 
BRANCH  14  15
ATOM     15  C8  OHN d          38.062  21.753  10.041  0.00  0.00     0.007 C 
BRANCH  15  16
ATOM     16  C7  OHN d          37.135  22.675  10.818  0.00  0.00     0.000 C 
BRANCH  16  17
ATOM     17  C6  OHN d          36.082  23.276   9.881  0.00  0.00     0.000 C 
BRANCH  17  18
ATOM     18  C5  OHN d          35.532  24.541  10.521  0.00  0.00     0.000 C 
BRANCH  18  19
ATOM     19  C4  OHN d          36.627  25.239  11.296  0.00  0.00     0.000 C 
BRANCH  19  20
ATOM     20  C3  OHN d          36.665  26.710  10.927  0.00  0.00    -0.000 C 
BRANCH  20  21
ATOM     21  C2  OHN d          37.985  27.305  11.360  0.00  0.00    -0.005 C 
ATOM     22  C1  OHN d          38.630  26.325  12.302  0.00  0.00     0.005 C 
ENDBRANCH  20  21
ENDBRANCH  19  20
ENDBRANCH  18  19
ENDBRANCH  17  18
ENDBRANCH  16  17
ENDBRANCH  15  16
ENDBRANCH  14  15
ENDBRANCH   1  14
TORSDOF 11
ENDMDL
MODEL 5
REMARK VINA RESULT:      -4.9      0.858      1.175
REMARK  11 active torsions:
REMARK  status: ('A' for Active; 'I' for Inactive)
REMARK    1  A    between atoms: C3_3  and  C2_2 
REMARK    2  A    between atoms: C4_4  and  C3_3 
REMARK    3  A    between atoms: C5_5  and  C4_4 
REMARK    4  A    between atoms: C6_6  and  C5_5 
REMARK    5  A    between atoms: C7_7  and  C6_6 
REMARK    6  A    between atoms: C8_8  and  C7_7 
REMARK    7  A    between atoms: C9_9  and  C8_8 
REMARK    8  A    between atoms: C10_10  and  C9_9 
REMARK    9  A    between atoms: C11_12  and  C10_10 
REMARK   10  A    between atoms: C11_12  and  C12_13 
REMARK       I    between atoms: C12_13  and  N1_15 
REMARK   11  A    between atoms: C13_16  and  N1_15 
ROOT
ATOM      1  C10 OHN d          38.263  21.240  10.558  0.00  0.00     0.135 C 
ATOM      2  O1  OHN d          38.997  20.547   9.874  0.00  0.00    -0.297 OA
ENDROOT
BRANCH   1   3
ATOM      3  C11 OHN d          38.122  21.017  12.027  0.00  0.00     0.181 C 
BRANCH   3   4
ATOM      4  C12 OHN d          39.378  20.405  12.589  0.00  0.00     0.225 C 
ATOM      5  N1  OHN d          39.720  19.176  12.224  0.00  0.00    -0.347 N 
ATOM      6  H19 OHN d          39.149  18.628  11.597  0.00  0.00     0.163 HD
ATOM      7  O2  OHN d          40.030  21.065  13.364  0.00  0.00    -0.273 OA
BRANCH   5   8
ATOM      8  C13 OHN d          40.946  18.670  12.769  0.00  0.00     0.186 C 
ATOM      9  C14 OHN d          40.839  17.291  13.418  0.00  0.00     0.062 C 
ATOM     10  C15 OHN d          42.105  16.504  13.040  0.00  0.00     0.181 C 
ATOM     11  O4  OHN d          42.626  17.160  11.898  0.00  0.00    -0.320 OA
ATOM     12  C16 OHN d          41.969  18.414  11.731  0.00  0.00     0.281 C 
ATOM     13  O3  OHN d          42.240  19.179  10.845  0.00  0.00    -0.263 OA
ENDBRANCH   5   8
ENDBRANCH   3   4
ENDBRANCH   1   3
BRANCH   1  14
ATOM     14  C9  OHN d          37.427  22.307   9.927  0.00  0.00     0.079 C 
BRANCH  14  15
ATOM     15  C8  OHN d          36.839  23.250  10.949  0.00  0.00     0.007 C 
BRANCH  15  16
ATOM     16  C7  OHN d          35.598  23.818  10.279  0.00  0.00     0.000 C 
BRANCH  16  17
ATOM     17  C6  OHN d          35.537  25.336  10.483  0.00  0.00     0.000 C 
BRANCH  17  18
ATOM     18  C5  OHN d          36.681  25.746  11.397  0.00  0.00     0.000 C 
BRANCH  18  19
ATOM     19  C4  OHN d          37.249  27.072  10.942  0.00  0.00     0.000 C 
BRANCH  19  20
ATOM     20  C3  OHN d          38.511  27.389  11.721  0.00  0.00    -0.000 C 
BRANCH  20  21
ATOM     21  C2  OHN d          38.990  26.145  12.434  0.00  0.00    -0.005 C 
ATOM     22  C1  OHN d          40.454  26.332  12.724  0.00  0.00     0.005 C 
ENDBRANCH  20  21
ENDBRANCH  19  20
ENDBRANCH  18  19
ENDBRANCH  17  18
ENDBRANCH  16  17
ENDBRANCH  15  16
ENDBRANCH  14  15
ENDBRANCH   1  14
TORSDOF 11
ENDMDL
MODEL 6
REMARK VINA RESULT:      -4.8      3.083      4.924
REMARK  11 active torsions:
REMARK  status: ('A' for Active; 'I' for Inactive)
REMARK    1  A    between atoms: C3_3  and  C2_2 
REMARK    2  A    between atoms: C4_4  and  C3_3 
REMARK    3  A    between atoms: C5_5  and  C4_4 
REMARK    4  A    between atoms: C6_6  and  C5_5 
REMARK    5  A    between atoms: C7_7  and  C6_6 
REMARK    6  A    between atoms: C8_8  and  C7_7 
REMARK    7  A    between atoms: C9_9  and  C8_8 
REMARK    8  A    between atoms: C10_10  and  C9_9 
REMARK    9  A    between atoms: C11_12  and  C10_10 
REMARK   10  A    between atoms: C11_12  and  C12_13 
REMARK       I    between atoms: C12_13  and  N1_15 
REMARK   11  A    between atoms: C13_16  and  N1_15 
ROOT
ATOM      1  C10 OHN d          43.000  23.289  10.853  0.00  0.00     0.135 C 
ATOM      2  O1  OHN d          43.908  22.573  11.239  0.00  0.00    -0.297 OA
ENDROOT
BRANCH   1   3
ATOM      3  C11 OHN d          41.572  22.960  11.135  0.00  0.00     0.181 C 
BRANCH   3   4
ATOM      4  C12 OHN d          41.323  21.487  10.942  0.00  0.00     0.225 C 
ATOM      5  N1  OHN d          41.925  20.617  11.743  0.00  0.00    -0.347 N 
ATOM      6  H19 OHN d          42.565  20.913  12.466  0.00  0.00     0.163 HD
ATOM      7  O2  OHN d          40.580  21.152  10.050  0.00  0.00    -0.273 OA
BRANCH   5   8
ATOM      8  C13 OHN d          41.615  19.234  11.525  0.00  0.00     0.186 C 
ATOM      9  C14 OHN d          42.821  18.298  11.526  0.00  0.00     0.062 C 
ATOM     10  C15 OHN d          42.408  17.013  12.264  0.00  0.00     0.181 C 
ATOM     11  O4  OHN d          41.278  17.374  13.036  0.00  0.00    -0.320 OA
ATOM     12  C16 OHN d          40.806  18.652  12.619  0.00  0.00     0.281 C 
ATOM     13  O3  OHN d          39.842  19.181  13.103  0.00  0.00    -0.263 OA
ENDBRANCH   5   8
ENDBRANCH   3   4
ENDBRANCH   1   3
BRANCH   1  14
ATOM     14  C9  OHN d          43.290  24.499  10.025  0.00  0.00     0.079 C 
BRANCH  14  15
ATOM     15  C8  OHN d          44.052  25.549  10.796  0.00  0.00     0.007 C 
BRANCH  15  16
ATOM     16  C7  OHN d          43.000  26.571  11.199  0.00  0.00     0.000 C 
BRANCH  16  17
ATOM     17  C6  OHN d          43.264  27.064  12.626  0.00  0.00     0.000 C 
BRANCH  17  18
ATOM     18  C5  OHN d          41.951  27.553  13.218  0.00  0.00     0.000 C 
BRANCH  18  19
ATOM     19  C4  OHN d          40.807  27.187  12.298  0.00  0.00     0.000 C 
BRANCH  19  20
ATOM     20  C3  OHN d          39.666  28.169  12.475  0.00  0.00    -0.000 C 
BRANCH  20  21
ATOM     21  C2  OHN d          38.448  27.668  11.732  0.00  0.00    -0.005 C 
ATOM     22  C1  OHN d          38.242  26.232  12.126  0.00  0.00     0.005 C 
ENDBRANCH  20  21
ENDBRANCH  19  20
ENDBRANCH  18  19
ENDBRANCH  17  18
ENDBRANCH  16  17
ENDBRANCH  15  16
ENDBRANCH  14  15
ENDBRANCH   1  14
TORSDOF 11
ENDMDL
MODEL 7
REMARK VINA RESULT:      -4.8      1.714      2.640
REMARK  11 active torsions:
REMARK  status: ('A' for Active; 'I' for Inactive)
REMARK    1  A    between atoms: C3_3  and  C2_2 
REMARK    2  A    between atoms: C4_4  and  C3_3 
REMARK    3  A    between atoms: C5_5  and  C4_4 
REMARK    4  A    between atoms: C6_6  and  C5_5 
REMARK    5  A    between atoms: C7_7  and  C6_6 
REMARK    6  A    between atoms: C8_8  and  C7_7 
REMARK    7  A    between atoms: C9_9  and  C8_8 
REMARK    8  A    between atoms: C10_10  and  C9_9 
REMARK    9  A    between atoms: C11_12  and  C10_10 
REMARK   10  A    between atoms: C11_12  and  C12_13 
REMARK       I    between atoms: C12_13  and  N1_15 
REMARK   11  A    between atoms: C13_16  and  N1_15 
ROOT
ATOM      1  C10 OHN d          38.384  21.071  10.490  0.00  0.00     0.135 C 
ATOM      2  O1  OHN d          37.974  20.148  11.173  0.00  0.00    -0.297 OA
ENDROOT
BRANCH   1   3
ATOM      3  C11 OHN d          39.703  21.005   9.796  0.00  0.00     0.181 C 
BRANCH   3   4
ATOM      4  C12 OHN d          40.800  20.689  10.779  0.00  0.00     0.225 C 
ATOM      5  N1  OHN d          41.597  19.654  10.551  0.00  0.00    -0.347 N 
ATOM      6  H19 OHN d          41.476  19.054   9.748  0.00  0.00     0.163 HD
ATOM      7  O2  OHN d          40.906  21.399  11.751  0.00  0.00    -0.273 OA
BRANCH   5   8
ATOM      8  C13 OHN d          42.641  19.434  11.511  0.00  0.00     0.186 C 
ATOM      9  C14 OHN d          42.770  17.993  12.000  0.00  0.00     0.062 C 
ATOM     10  C15 OHN d          44.271  17.676  12.113  0.00  0.00     0.181 C 
ATOM     11  O4  OHN d          44.917  18.638  11.299  0.00  0.00    -0.320 OA
ATOM     12  C16 OHN d          43.990  19.661  10.946  0.00  0.00     0.281 C 
ATOM     13  O3  OHN d          44.292  20.610  10.274  0.00  0.00    -0.263 OA
ENDBRANCH   5   8
ENDBRANCH   3   4
ENDBRANCH   1   3
BRANCH   1  14
ATOM     14  C9  OHN d          37.595  22.336  10.375  0.00  0.00     0.079 C 
BRANCH  14  15
ATOM     15  C8  OHN d          37.087  22.815  11.714  0.00  0.00     0.007 C 
BRANCH  15  16
ATOM     16  C7  OHN d          38.170  23.754  12.223  0.00  0.00     0.000 C 
BRANCH  16  17
ATOM     17  C6  OHN d          37.543  25.059  12.724  0.00  0.00     0.000 C 
BRANCH  17  18
ATOM     18  C5  OHN d          38.396  26.221  12.240  0.00  0.00     0.000 C 
BRANCH  18  19
ATOM     19  C4  OHN d          37.630  27.024  11.212  0.00  0.00     0.000 C 
BRANCH  19  20
ATOM     20  C3  OHN d          36.157  26.669  11.271  0.00  0.00    -0.000 C 
BRANCH  20  21
ATOM     21  C2  OHN d          35.636  26.444   9.870  0.00  0.00    -0.005 C 
ATOM     22  C1  OHN d          34.975  25.093   9.852  0.00  0.00     0.005 C 
ENDBRANCH  20  21
ENDBRANCH  19  20
ENDBRANCH  18  19
ENDBRANCH  17  18
ENDBRANCH  16  17
ENDBRANCH  15  16
ENDBRANCH  14  15
ENDBRANCH   1  14
TORSDOF 11
ENDMDL
MODEL 8
REMARK VINA RESULT:      -4.7      1.632      2.449
REMARK  11 active torsions:
REMARK  status: ('A' for Active; 'I' for Inactive)
REMARK    1  A    between atoms: C3_3  and  C2_2 
REMARK    2  A    between atoms: C4_4  and  C3_3 
REMARK    3  A    between atoms: C5_5  and  C4_4 
REMARK    4  A    between atoms: C6_6  and  C5_5 
REMARK    5  A    between atoms: C7_7  and  C6_6 
REMARK    6  A    between atoms: C8_8  and  C7_7 
REMARK    7  A    between atoms: C9_9  and  C8_8 
REMARK    8  A    between atoms: C10_10  and  C9_9 
REMARK    9  A    between atoms: C11_12  and  C10_10 
REMARK   10  A    between atoms: C11_12  and  C12_13 
REMARK       I    between atoms: C12_13  and  N1_15 
REMARK   11  A    between atoms: C13_16  and  N1_15 
ROOT
ATOM      1  C10 OHN d          37.729  21.980  12.098  0.00  0.00     0.135 C 
ATOM      2  O1  OHN d          37.935  21.840  13.291  0.00  0.00    -0.297 OA
ENDROOT
BRANCH   1   3
ATOM      3  C11 OHN d          37.899  20.851  11.137  0.00  0.00     0.181 C 
BRANCH   3   4
ATOM      4  C12 OHN d          39.268  20.895  10.511  0.00  0.00     0.225 C 
ATOM      5  N1  OHN d          40.336  20.988  11.293  0.00  0.00    -0.347 N 
ATOM      6  H19 OHN d          40.257  21.054  12.297  0.00  0.00     0.163 HD
ATOM      7  O2  OHN d          39.339  20.848   9.306  0.00  0.00    -0.273 OA
BRANCH   5   8
ATOM      8  C13 OHN d          41.608  20.989  10.631  0.00  0.00     0.186 C 
ATOM      9  C14 OHN d          42.552  22.111  11.055  0.00  0.00     0.062 C 
ATOM     10  C15 OHN d          43.968  21.517  11.142  0.00  0.00     0.181 C 
ATOM     11  O4  OHN d          43.779  20.119  11.256  0.00  0.00    -0.320 OA
ATOM     12  C16 OHN d          42.423  19.797  10.961  0.00  0.00     0.281 C 
ATOM     13  O3  OHN d          42.004  18.671  10.967  0.00  0.00    -0.263 OA
ENDBRANCH   5   8
ENDBRANCH   3   4
ENDBRANCH   1   3
BRANCH   1  14
ATOM     14  C9  OHN d          37.354  23.318  11.547  0.00  0.00     0.079 C 
BRANCH  14  15
ATOM     15  C8  OHN d          36.340  23.214  10.435  0.00  0.00     0.007 C 
BRANCH  15  16
ATOM     16  C7  OHN d          35.249  24.204  10.813  0.00  0.00     0.000 C 
BRANCH  16  17
ATOM     17  C6  OHN d          35.125  25.288   9.737  0.00  0.00     0.000 C 
BRANCH  17  18
ATOM     18  C5  OHN d          35.851  26.534  10.220  0.00  0.00     0.000 C 
BRANCH  18  19
ATOM     19  C4  OHN d          35.577  26.747  11.692  0.00  0.00     0.000 C 
BRANCH  19  20
ATOM     20  C3  OHN d          36.843  27.200  12.393  0.00  0.00    -0.000 C 
BRANCH  20  21
ATOM     21  C2  OHN d          37.973  27.282  11.393  0.00  0.00    -0.005 C 
ATOM     22  C1  OHN d          39.222  27.625  12.157  0.00  0.00     0.005 C 
ENDBRANCH  20  21
ENDBRANCH  19  20
ENDBRANCH  18  19
ENDBRANCH  17  18
ENDBRANCH  16  17
ENDBRANCH  15  16
ENDBRANCH  14  15
ENDBRANCH   1  14
TORSDOF 11
ENDMDL
MODEL 9
REMARK VINA RESULT:      -4.7      3.001      4.905
REMARK  11 active torsions:
REMARK  status: ('A' for Active; 'I' for Inactive)
REMARK    1  A    between atoms: C3_3  and  C2_2 
REMARK    2  A    between atoms: C4_4  and  C3_3 
REMARK    3  A    between atoms: C5_5  and  C4_4 
REMARK    4  A    between atoms: C6_6  and  C5_5 
REMARK    5  A    between atoms: C7_7  and  C6_6 
REMARK    6  A    between atoms: C8_8  and  C7_7 
REMARK    7  A    between atoms: C9_9  and  C8_8 
REMARK    8  A    between atoms: C10_10  and  C9_9 
REMARK    9  A    between atoms: C11_12  and  C10_10 
REMARK   10  A    between atoms: C11_12  and  C12_13 
REMARK       I    between atoms: C12_13  and  N1_15 
REMARK   11  A    between atoms: C13_16  and  N1_15 
ROOT
ATOM      1  C10 OHN d          43.106  25.308  11.777  0.00  0.00     0.135 C 
ATOM      2  O1  OHN d          43.189  24.753  12.859  0.00  0.00    -0.297 OA
ENDROOT
BRANCH   1   3
ATOM      3  C11 OHN d          43.354  24.575  10.500  0.00  0.00     0.181 C 
BRANCH   3   4
ATOM      4  C12 OHN d          42.981  23.123  10.647  0.00  0.00     0.225 C 
ATOM      5  N1  OHN d          41.713  22.797  10.860  0.00  0.00    -0.347 N 
ATOM      6  H19 OHN d          40.991  23.497  10.951  0.00  0.00     0.163 HD
ATOM      7  O2  OHN d          43.866  22.303  10.568  0.00  0.00    -0.273 OA
BRANCH   5   8
ATOM      8  C13 OHN d          41.425  21.395  10.954  0.00  0.00     0.186 C 
ATOM      9  C14 OHN d          41.165  20.887  12.370  0.00  0.00     0.062 C 
ATOM     10  C15 OHN d          40.010  19.874  12.293  0.00  0.00     0.181 C 
ATOM     11  O4  OHN d          39.350  20.154  11.071  0.00  0.00    -0.320 OA
ATOM     12  C16 OHN d          40.157  21.028  10.286  0.00  0.00     0.281 C 
ATOM     13  O3  OHN d          39.834  21.405   9.192  0.00  0.00    -0.263 OA
ENDBRANCH   5   8
ENDBRANCH   3   4
ENDBRANCH   1   3
BRANCH   1  14
ATOM     14  C9  OHN d          42.808  26.771  11.698  0.00  0.00     0.079 C 
BRANCH  14  15
ATOM     15  C8  OHN d          41.858  27.219  12.782  0.00  0.00     0.007 C 
BRANCH  15  16
ATOM     16  C7  OHN d          40.488  26.762  12.307  0.00  0.00     0.000 C 
BRANCH  16  17
ATOM     17  C6  OHN d          39.524  27.953  12.254  0.00  0.00     0.000 C 
BRANCH  17  18
ATOM     18  C5  OHN d          38.218  27.490  11.627  0.00  0.00     0.000 C 
BRANCH  18  19
ATOM     19  C4  OHN d          37.871  26.107  12.132  0.00  0.00     0.000 C 
BRANCH  19  20
ATOM     20  C3  OHN d          36.718  25.537  11.328  0.00  0.00    -0.000 C 
BRANCH  20  21
ATOM     21  C2  OHN d          35.903  26.667  10.742  0.00  0.00    -0.005 C 
ATOM     22  C1  OHN d          35.218  26.135   9.514  0.00  0.00     0.005 C 
ENDBRANCH  20  21
ENDBRANCH  19  20
ENDBRANCH  18  19
ENDBRANCH  17  18
ENDBRANCH  16  17
ENDBRANCH  15  16
ENDBRANCH  14  15
ENDBRANCH   1  14
TORSDOF 11
ENDMDL
MODEL 10
REMARK VINA RESULT:      -4.7      3.508      5.366
REMARK  11 active torsions:
REMARK  status: ('A' for Active; 'I' for Inactive)
REMARK    1  A    between atoms: C3_3  and  C2_2 
REMARK    2  A    between atoms: C4_4  and  C3_3 
REMARK    3  A    between atoms: C5_5  and  C4_4 
REMARK    4  A    between atoms: C6_6  and  C5_5 
REMARK    5  A    between atoms: C7_7  and  C6_6 
REMARK    6  A    between atoms: C8_8  and  C7_7 
REMARK    7  A    between atoms: C9_9  and  C8_8 
REMARK    8  A    between atoms: C10_10  and  C9_9 
REMARK    9  A    between atoms: C11_12  and  C10_10 
REMARK   10  A    between atoms: C11_12  and  C12_13 
REMARK       I    between atoms: C12_13  and  N1_15 
REMARK   11  A    between atoms: C13_16  and  N1_15 
ROOT
ATOM      1  C10 OHN d          41.823  26.752  12.848  0.00  0.00     0.135 C 
ATOM      2  O1  OHN d          41.841  25.948  13.765  0.00  0.00    -0.297 OA
ENDROOT
BRANCH   1   3
ATOM      3  C11 OHN d          43.025  26.996  11.998  0.00  0.00     0.181 C 
BRANCH   3   4
ATOM      4  C12 OHN d          43.303  25.800  11.125  0.00  0.00     0.225 C 
ATOM      5  N1  OHN d          43.056  24.583  11.594  0.00  0.00    -0.347 N 
ATOM      6  H19 OHN d          42.708  24.433  12.530  0.00  0.00     0.163 HD
ATOM      7  O2  OHN d          43.750  25.999  10.020  0.00  0.00    -0.273 OA
BRANCH   5   8
ATOM      8  C13 OHN d          43.310  23.494  10.696  0.00  0.00     0.186 C 
ATOM      9  C14 OHN d          44.608  22.735  10.960  0.00  0.00     0.062 C 
ATOM     10  C15 OHN d          44.319  21.238  10.750  0.00  0.00     0.181 C 
ATOM     11  O4  OHN d          42.913  21.112  10.859  0.00  0.00    -0.320 OA
ATOM     12  C16 OHN d          42.316  22.405  10.826  0.00  0.00     0.281 C 
ATOM     13  O3  OHN d          41.128  22.576  10.882  0.00  0.00    -0.263 OA
ENDBRANCH   5   8
ENDBRANCH   3   4
ENDBRANCH   1   3
BRANCH   1  14
ATOM     14  C9  OHN d          40.600  27.569  12.583  0.00  0.00     0.079 C 
BRANCH  14  15
ATOM     15  C8  OHN d          39.401  26.714  12.254  0.00  0.00     0.007 C 
BRANCH  15  16
ATOM     16  C7  OHN d          38.312  27.705  11.875  0.00  0.00     0.000 C 
BRANCH  16  17
ATOM     17  C6  OHN d          37.315  27.050  10.912  0.00  0.00     0.000 C 
BRANCH  17  18
ATOM     18  C5  OHN d          36.825  25.751  11.534  0.00  0.00     0.000 C 
BRANCH  18  19
ATOM     19  C4  OHN d          35.644  25.223  10.750  0.00  0.00     0.000 C 
BRANCH  19  20
ATOM     20  C3  OHN d          35.913  23.797  10.309  0.00  0.00    -0.000 C 
BRANCH  20  21
ATOM     21  C2  OHN d          36.999  23.197  11.172  0.00  0.00    -0.005 C 
ATOM     22  C1  OHN d          37.649  22.100  10.375  0.00  0.00     0.005 C 
ENDBRANCH  20  21
ENDBRANCH  19  20
ENDBRANCH  18  19
ENDBRANCH  17  18
ENDBRANCH  16  17
ENDBRANCH  15  16
ENDBRANCH  14  15
ENDBRANCH   1  14
TORSDOF 11
ENDMDL
MODEL 11
REMARK VINA RESULT:      -4.7      4.137      6.313
REMARK  11 active torsions:
REMARK  status: ('A' for Active; 'I' for Inactive)
REMARK    1  A    between atoms: C3_3  and  C2_2 
REMARK    2  A    between atoms: C4_4  and  C3_3 
REMARK    3  A    between atoms: C5_5  and  C4_4 
REMARK    4  A    between atoms: C6_6  and  C5_5 
REMARK    5  A    between atoms: C7_7  and  C6_6 
REMARK    6  A    between atoms: C8_8  and  C7_7 
REMARK    7  A    between atoms: C9_9  and  C8_8 
REMARK    8  A    between atoms: C10_10  and  C9_9 
REMARK    9  A    between atoms: C11_12  and  C10_10 
REMARK   10  A    between atoms: C11_12  and  C12_13 
REMARK       I    between atoms: C12_13  and  N1_15 
REMARK   11  A    between atoms: C13_16  and  N1_15 
ROOT
ATOM      1  C10 OHN d          38.888  27.118  12.167  0.00  0.00     0.135 C 
ATOM      2  O1  OHN d          39.073  26.000  12.616  0.00  0.00    -0.297 OA
ENDROOT
BRANCH   1   3
ATOM      3  C11 OHN d          39.709  28.284  12.609  0.00  0.00     0.181 C 
BRANCH   3   4
ATOM      4  C12 OHN d          41.134  27.861  12.854  0.00  0.00     0.225 C 
ATOM      5  N1  OHN d          41.730  27.055  11.984  0.00  0.00    -0.347 N 
ATOM      6  H19 OHN d          41.248  26.697  11.173  0.00  0.00     0.163 HD
ATOM      7  O2  OHN d          41.681  28.274  13.849  0.00  0.00    -0.273 OA
BRANCH   5   8
ATOM      8  C13 OHN d          43.097  26.723  12.262  0.00  0.00     0.186 C 
ATOM      9  C14 OHN d          43.298  25.743  13.416  0.00  0.00     0.062 C 
ATOM     10  C15 OHN d          44.420  24.773  13.009  0.00  0.00     0.181 C 
ATOM     11  O4  OHN d          44.496  24.863  11.598  0.00  0.00    -0.320 OA
ATOM     12  C16 OHN d          43.741  25.985  11.152  0.00  0.00     0.281 C 
ATOM     13  O3  OHN d          43.658  26.297   9.994  0.00  0.00    -0.263 OA
ENDBRANCH   5   8
ENDBRANCH   3   4
ENDBRANCH   1   3
BRANCH   1  14
ATOM     14  C9  OHN d          37.782  27.368  11.193  0.00  0.00     0.079 C 
BRANCH  14  15
ATOM     15  C8  OHN d          36.530  26.599  11.540  0.00  0.00     0.007 C 
BRANCH  15  16
ATOM     16  C7  OHN d          35.860  26.329  10.202  0.00  0.00     0.000 C 
BRANCH  16  17
ATOM     17  C6  OHN d          35.377  24.877  10.137  0.00  0.00     0.000 C 
BRANCH  17  18
ATOM     18  C5  OHN d          36.199  24.051  11.115  0.00  0.00     0.000 C 
BRANCH  18  19
ATOM     19  C4  OHN d          36.756  22.833  10.413  0.00  0.00     0.000 C 
BRANCH  19  20
ATOM     20  C3  OHN d          37.986  22.331  11.145  0.00  0.00    -0.000 C 
BRANCH  20  21
ATOM     21  C2  OHN d          38.329  20.940  10.663  0.00  0.00    -0.005 C 
ATOM     22  C1  OHN d          39.328  21.088   9.549  0.00  0.00     0.005 C 
ENDBRANCH  20  21
ENDBRANCH  19  20
ENDBRANCH  18  19
ENDBRANCH  17  18
ENDBRANCH  16  17
ENDBRANCH  15  16
ENDBRANCH  14  15
ENDBRANCH   1  14
TORSDOF 11
ENDMDL
MODEL 12
REMARK VINA RESULT:      -4.7      1.971      2.470
REMARK  11 active torsions:
REMARK  status: ('A' for Active; 'I' for Inactive)
REMARK    1  A    between atoms: C3_3  and  C2_2 
REMARK    2  A    between atoms: C4_4  and  C3_3 
REMARK    3  A    between atoms: C5_5  and  C4_4 
REMARK    4  A    between atoms: C6_6  and  C5_5 
REMARK    5  A    between atoms: C7_7  and  C6_6 
REMARK    6  A    between atoms: C8_8  and  C7_7 
REMARK    7  A    between atoms: C9_9  and  C8_8 
REMARK    8  A    between atoms: C10_10  and  C9_9 
REMARK    9  A    between atoms: C11_12  and  C10_10 
REMARK   10  A    between atoms: C11_12  and  C12_13 
REMARK       I    between atoms: C12_13  and  N1_15 
REMARK   11  A    between atoms: C13_16  and  N1_15 
ROOT
ATOM      1  C10 OHN d          38.154  22.113  10.973  0.00  0.00     0.135 C 
ATOM      2  O1  OHN d          38.819  22.811  11.719  0.00  0.00    -0.297 OA
ENDROOT
BRANCH   1   3
ATOM      3  C11 OHN d          38.569  20.721  10.628  0.00  0.00     0.181 C 
BRANCH   3   4
ATOM      4  C12 OHN d          39.949  20.436  11.161  0.00  0.00     0.225 C 
ATOM      5  N1  OHN d          40.998  21.002  10.579  0.00  0.00    -0.347 N 
ATOM      6  H19 OHN d          40.901  21.601   9.772  0.00  0.00     0.163 HD
ATOM      7  O2  OHN d          40.045  19.690  12.107  0.00  0.00    -0.273 OA
BRANCH   5   8
ATOM      8  C13 OHN d          42.277  20.715  11.161  0.00  0.00     0.186 C 
ATOM      9  C14 OHN d          43.034  19.560  10.508  0.00  0.00     0.062 C 
ATOM     10  C15 OHN d          44.518  19.960  10.441  0.00  0.00     0.181 C 
ATOM     11  O4  OHN d          44.530  21.371  10.565  0.00  0.00    -0.320 OA
ATOM     12  C16 OHN d          43.245  21.821  10.983  0.00  0.00     0.281 C 
ATOM     13  O3  OHN d          42.993  22.979  11.183  0.00  0.00    -0.263 OA
ENDBRANCH   5   8
ENDBRANCH   3   4
ENDBRANCH   1   3
BRANCH   1  14
ATOM     14  C9  OHN d          36.922  22.658  10.327  0.00  0.00     0.079 C 
BRANCH  14  15
ATOM     15  C8  OHN d          36.346  23.827  11.088  0.00  0.00     0.007 C 
BRANCH  15  16
ATOM     16  C7  OHN d          35.260  24.382  10.180  0.00  0.00     0.000 C 
BRANCH  16  17
ATOM     17  C6  OHN d          35.487  25.879   9.941  0.00  0.00     0.000 C 
BRANCH  17  18
ATOM     18  C5  OHN d          36.170  26.465  11.167  0.00  0.00     0.000 C 
BRANCH  18  19
ATOM     19  C4  OHN d          37.368  27.285  10.740  0.00  0.00     0.000 C 
BRANCH  19  20
ATOM     20  C3  OHN d          38.174  27.695  11.958  0.00  0.00    -0.000 C 
BRANCH  20  21
ATOM     21  C2  OHN d          39.196  26.627  12.271  0.00  0.00    -0.005 C 
ATOM     22  C1  OHN d          40.508  27.321  12.513  0.00  0.00     0.005 C 
ENDBRANCH  20  21
ENDBRANCH  19  20
ENDBRANCH  18  19
ENDBRANCH  17  18
ENDBRANCH  16  17
ENDBRANCH  15  16
ENDBRANCH  14  15
ENDBRANCH   1  14
TORSDOF 11
ENDMDL
MODEL 13
REMARK VINA RESULT:      -4.7      2.688      4.257
REMARK  11 active torsions:
REMARK  status: ('A' for Active; 'I' for Inactive)
REMARK    1  A    between atoms: C3_3  and  C2_2 
REMARK    2  A    between atoms: C4_4  and  C3_3 
REMARK    3  A    between atoms: C5_5  and  C4_4 
REMARK    4  A    between atoms: C6_6  and  C5_5 
REMARK    5  A    between atoms: C7_7  and  C6_6 
REMARK    6  A    between atoms: C8_8  and  C7_7 
REMARK    7  A    between atoms: C9_9  and  C8_8 
REMARK    8  A    between atoms: C10_10  and  C9_9 
REMARK    9  A    between atoms: C11_12  and  C10_10 
REMARK   10  A    between atoms: C11_12  and  C12_13 
REMARK       I    between atoms: C12_13  and  N1_15 
REMARK   11  A    between atoms: C13_16  and  N1_15 
ROOT
ATOM      1  C10 OHN d          36.558  23.934  11.148  0.00  0.00     0.135 C 
ATOM      2  O1  OHN d          35.705  24.080  10.291  0.00  0.00    -0.297 OA
ENDROOT
BRANCH   1   3
ATOM      3  C11 OHN d          36.965  22.579  11.625  0.00  0.00     0.181 C 
BRANCH   3   4
ATOM      4  C12 OHN d          38.224  22.134  10.929  0.00  0.00     0.225 C 
ATOM      5  N1  OHN d          39.380  22.190  11.579  0.00  0.00    -0.347 N 
ATOM      6  H19 OHN d          39.444  22.547  12.521  0.00  0.00     0.163 HD
ATOM      7  O2  OHN d          38.130  21.742   9.790  0.00  0.00    -0.273 OA
BRANCH   5   8
ATOM      8  C13 OHN d          40.531  21.717  10.867  0.00  0.00     0.186 C 
ATOM      9  C14 OHN d          41.732  22.660  10.888  0.00  0.00     0.062 C 
ATOM     10  C15 OHN d          42.995  21.797  11.054  0.00  0.00     0.181 C 
ATOM     11  O4  OHN d          42.537  20.565  11.581  0.00  0.00    -0.320 OA
ATOM     12  C16 OHN d          41.118  20.502  11.476  0.00  0.00     0.281 C 
ATOM     13  O3  OHN d          40.480  19.549  11.835  0.00  0.00    -0.263 OA
ENDBRANCH   5   8
ENDBRANCH   3   4
ENDBRANCH   1   3
BRANCH   1  14
ATOM     14  C9  OHN d          37.187  25.124  11.799  0.00  0.00     0.079 C 
BRANCH  14  15
ATOM     15  C8  OHN d          36.780  26.418  11.138  0.00  0.00     0.007 C 
BRANCH  15  16
ATOM     16  C7  OHN d          37.993  27.324  11.283  0.00  0.00     0.000 C 
BRANCH  16  17
ATOM     17  C6  OHN d          38.769  26.965  12.555  0.00  0.00     0.000 C 
BRANCH  17  18
ATOM     18  C5  OHN d          40.169  27.549  12.448  0.00  0.00     0.000 C 
BRANCH  18  19
ATOM     19  C4  OHN d          41.189  26.432  12.436  0.00  0.00     0.000 C 
BRANCH  19  20
ATOM     20  C3  OHN d          42.547  26.976  12.037  0.00  0.00    -0.000 C 
BRANCH  20  21
ATOM     21  C2  OHN d          43.475  25.828  11.711  0.00  0.00    -0.005 C 
ATOM     22  C1  OHN d          43.722  25.860  10.228  0.00  0.00     0.005 C 
ENDBRANCH  20  21
ENDBRANCH  19  20
ENDBRANCH  18  19
ENDBRANCH  17  18
ENDBRANCH  16  17
ENDBRANCH  15  16
ENDBRANCH  14  15
ENDBRANCH   1  14
TORSDOF 11
ENDMDL
MODEL 14
REMARK VINA RESULT:      -4.7      3.323      5.335
REMARK  11 active torsions:
REMARK  status: ('A' for Active; 'I' for Inactive)
REMARK    1  A    between atoms: C3_3  and  C2_2 
REMARK    2  A    between atoms: C4_4  and  C3_3 
REMARK    3  A    between atoms: C5_5  and  C4_4 
REMARK    4  A    between atoms: C6_6  and  C5_5 
REMARK    5  A    between atoms: C7_7  and  C6_6 
REMARK    6  A    between atoms: C8_8  and  C7_7 
REMARK    7  A    between atoms: C9_9  and  C8_8 
REMARK    8  A    between atoms: C10_10  and  C9_9 
REMARK    9  A    between atoms: C11_12  and  C10_10 
REMARK   10  A    between atoms: C11_12  and  C12_13 
REMARK       I    between atoms: C12_13  and  N1_15 
REMARK   11  A    between atoms: C13_16  and  N1_15 
ROOT
ATOM      1  C10 OHN d          44.189  24.849  11.135  0.00  0.00     0.135 C 
ATOM      2  O1  OHN d          45.178  24.794  11.845  0.00  0.00    -0.297 OA
ENDROOT
BRANCH   1   3
ATOM      3  C11 OHN d          43.669  23.644  10.423  0.00  0.00     0.181 C 
BRANCH   3   4
ATOM      4  C12 OHN d          42.618  22.955  11.253  0.00  0.00     0.225 C 
ATOM      5  N1  OHN d          41.441  22.676  10.708  0.00  0.00    -0.347 N 
ATOM      6  H19 OHN d          41.220  22.934   9.757  0.00  0.00     0.163 HD
ATOM      7  O2  OHN d          42.892  22.685  12.398  0.00  0.00    -0.273 OA
BRANCH   5   8
ATOM      8  C13 OHN d          40.502  21.988  11.545  0.00  0.00     0.186 C 
ATOM      9  C14 OHN d          39.088  22.564  11.532  0.00  0.00     0.062 C 
ATOM     10  C15 OHN d          38.106  21.381  11.541  0.00  0.00     0.181 C 
ATOM     11  O4  OHN d          38.859  20.268  11.092  0.00  0.00    -0.320 OA
ATOM     12  C16 OHN d          40.244  20.602  11.092  0.00  0.00     0.281 C 
ATOM     13  O3  OHN d          41.102  19.824  10.772  0.00  0.00    -0.263 OA
ENDBRANCH   5   8
ENDBRANCH   3   4
ENDBRANCH   1   3
BRANCH   1  14
ATOM     14  C9  OHN d          43.493  26.152  10.906  0.00  0.00     0.079 C 
BRANCH  14  15
ATOM     15  C8  OHN d          43.261  26.909  12.191  0.00  0.00     0.007 C 
BRANCH  15  16
ATOM     16  C7  OHN d          41.761  27.151  12.231  0.00  0.00     0.000 C 
BRANCH  16  17
ATOM     17  C6  OHN d          41.053  25.962  12.889  0.00  0.00     0.000 C 
BRANCH  17  18
ATOM     18  C5  OHN d          39.581  26.005  12.509  0.00  0.00     0.000 C 
BRANCH  18  19
ATOM     19  C4  OHN d          39.155  27.438  12.278  0.00  0.00     0.000 C 
BRANCH  19  20
ATOM     20  C3  OHN d          38.013  27.484  11.281  0.00  0.00    -0.000 C 
BRANCH  20  21
ATOM     21  C2  OHN d          37.103  26.297  11.500  0.00  0.00    -0.005 C 
ATOM     22  C1  OHN d          36.004  26.383  10.477  0.00  0.00     0.005 C 
ENDBRANCH  20  21
ENDBRANCH  19  20
ENDBRANCH  18  19
ENDBRANCH  17  18
ENDBRANCH  16  17
ENDBRANCH  15  16
ENDBRANCH  14  15
ENDBRANCH   1  14
TORSDOF 11
ENDMDL
MODEL 15
REMARK VINA RESULT:      -4.7      3.069      5.623
REMARK  11 active torsions:
REMARK  status: ('A' for Active; 'I' for Inactive)
REMARK    1  A    between atoms: C3_3  and  C2_2 
REMARK    2  A    between atoms: C4_4  and  C3_3 
REMARK    3  A    between atoms: C5_5  and  C4_4 
REMARK    4  A    between atoms: C6_6  and  C5_5 
REMARK    5  A    between atoms: C7_7  and  C6_6 
REMARK    6  A    between atoms: C8_8  and  C7_7 
REMARK    7  A    between atoms: C9_9  and  C8_8 
REMARK    8  A    between atoms: C10_10  and  C9_9 
REMARK    9  A    between atoms: C11_12  and  C10_10 
REMARK   10  A    between atoms: C11_12  and  C12_13 
REMARK       I    between atoms: C12_13  and  N1_15 
REMARK   11  A    between atoms: C13_16  and  N1_15 
ROOT
ATOM      1  C10 OHN d          43.850  21.905  11.432  0.00  0.00     0.135 C 
ATOM      2  O1  OHN d          43.746  22.012  12.641  0.00  0.00    -0.297 OA
ENDROOT
BRANCH   1   3
ATOM      3  C11 OHN d          43.786  20.575  10.756  0.00  0.00     0.181 C 
BRANCH   3   4
ATOM      4  C12 OHN d          42.409  19.981  10.893  0.00  0.00     0.225 C 
ATOM      5  N1  OHN d          41.390  20.771  11.206  0.00  0.00    -0.347 N 
ATOM      6  H19 OHN d          41.515  21.758  11.380  0.00  0.00     0.163 HD
ATOM      7  O2  OHN d          42.287  18.792  10.714  0.00  0.00    -0.273 OA
BRANCH   5   8
ATOM      8  C13 OHN d          40.102  20.144  11.284  0.00  0.00     0.186 C 
ATOM      9  C14 OHN d          39.358  20.369  12.598  0.00  0.00     0.062 C 
ATOM     10  C15 OHN d          37.874  20.591  12.257  0.00  0.00     0.181 C 
ATOM     11  O4  OHN d          37.858  20.961  10.890  0.00  0.00    -0.320 OA
ATOM     12  C16 OHN d          39.136  20.706  10.314  0.00  0.00     0.281 C 
ATOM     13  O3  OHN d          39.383  20.914   9.156  0.00  0.00    -0.263 OA
ENDBRANCH   5   8
ENDBRANCH   3   4
ENDBRANCH   1   3
BRANCH   1  14
ATOM     14  C9  OHN d          44.106  23.109  10.584  0.00  0.00     0.079 C 
BRANCH  14  15
ATOM     15  C8  OHN d          43.143  24.232  10.881  0.00  0.00     0.007 C 
BRANCH  15  16
ATOM     16  C7  OHN d          43.838  25.483  10.367  0.00  0.00     0.000 C 
BRANCH  16  17
ATOM     17  C6  OHN d          43.208  26.732  10.993  0.00  0.00     0.000 C 
BRANCH  17  18
ATOM     18  C5  OHN d          43.333  26.629  12.505  0.00  0.00     0.000 C 
BRANCH  18  19
ATOM     19  C4  OHN d          42.127  27.263  13.162  0.00  0.00     0.000 C 
BRANCH  19  20
ATOM     20  C3  OHN d          40.891  27.021  12.318  0.00  0.00    -0.000 C 
BRANCH  20  21
ATOM     21  C2  OHN d          39.884  28.120  12.570  0.00  0.00    -0.005 C 
ATOM     22  C1  OHN d          38.615  27.734  11.862  0.00  0.00     0.005 C 
ENDBRANCH  20  21
ENDBRANCH  19  20
ENDBRANCH  18  19
ENDBRANCH  17  18
ENDBRANCH  16  17
ENDBRANCH  15  16
ENDBRANCH  14  15
ENDBRANCH   1  14
TORSDOF 11
ENDMDL
MODEL 16
REMARK VINA RESULT:      -4.7      1.442      2.905
REMARK  11 active torsions:
REMARK  status: ('A' for Active; 'I' for Inactive)
REMARK    1  A    between atoms: C3_3  and  C2_2 
REMARK    2  A    between atoms: C4_4  and  C3_3 
REMARK    3  A    between atoms: C5_5  and  C4_4 
REMARK    4  A    between atoms: C6_6  and  C5_5 
REMARK    5  A    between atoms: C7_7  and  C6_6 
REMARK    6  A    between atoms: C8_8  and  C7_7 
REMARK    7  A    between atoms: C9_9  and  C8_8 
REMARK    8  A    between atoms: C10_10  and  C9_9 
REMARK    9  A    between atoms: C11_12  and  C10_10 
REMARK   10  A    between atoms: C11_12  and  C12_13 
REMARK       I    between atoms: C12_13  and  N1_15 
REMARK   11  A    between atoms: C13_16  and  N1_15 
ROOT
ATOM      1  C10 OHN d          37.494  21.770  12.006  0.00  0.00     0.135 C 
ATOM      2  O1  OHN d          37.175  20.665  12.408  0.00  0.00    -0.297 OA
ENDROOT
BRANCH   1   3
ATOM      3  C11 OHN d          38.026  21.978  10.626  0.00  0.00     0.181 C 
BRANCH   3   4
ATOM      4  C12 OHN d          39.137  21.001  10.339  0.00  0.00     0.225 C 
ATOM      5  N1  OHN d          40.000  20.700  11.300  0.00  0.00    -0.347 N 
ATOM      6  H19 OHN d          39.948  21.124  12.215  0.00  0.00     0.163 HD
ATOM      7  O2  OHN d          39.200  20.531   9.228  0.00  0.00    -0.273 OA
BRANCH   5   8
ATOM      8  C13 OHN d          41.009  19.737  10.967  0.00  0.00     0.186 C 
ATOM      9  C14 OHN d          42.394  20.324  10.703  0.00  0.00     0.062 C 
ATOM     10  C15 OHN d          43.426  19.375  11.336  0.00  0.00     0.181 C 
ATOM     11  O4  OHN d          42.701  18.616  12.286  0.00  0.00    -0.320 OA
ATOM     12  C16 OHN d          41.304  18.812  12.084  0.00  0.00     0.281 C 
ATOM     13  O3  OHN d          40.467  18.263  12.748  0.00  0.00    -0.263 OA
ENDBRANCH   5   8
ENDBRANCH   3   4
ENDBRANCH   1   3
BRANCH   1  14
ATOM     14  C9  OHN d          37.420  22.956  12.913  0.00  0.00     0.079 C 
BRANCH  14  15
ATOM     15  C8  OHN d          38.166  24.146  12.360  0.00  0.00     0.007 C 
BRANCH  15  16
ATOM     16  C7  OHN d          37.499  25.352  13.002  0.00  0.00     0.000 C 
BRANCH  16  17
ATOM     17  C6  OHN d          38.007  26.644  12.351  0.00  0.00     0.000 C 
BRANCH  17  18
ATOM     18  C5  OHN d          37.349  26.788  10.988  0.00  0.00     0.000 C 
BRANCH  18  19
ATOM     19  C4  OHN d          35.846  26.686  11.131  0.00  0.00     0.000 C 
BRANCH  19  20
ATOM     20  C3  OHN d          35.247  26.078   9.878  0.00  0.00    -0.000 C 
BRANCH  20  21
ATOM     21  C2  OHN d          35.294  24.571   9.977  0.00  0.00    -0.005 C 
ATOM     22  C1  OHN d          34.435  24.172  11.145  0.00  0.00     0.005 C 
ENDBRANCH  20  21
ENDBRANCH  19  20
ENDBRANCH  18  19
ENDBRANCH  17  18
ENDBRANCH  16  17
ENDBRANCH  15  16
ENDBRANCH  14  15
ENDBRANCH   1  14
TORSDOF 11
ENDMDL
MODEL 17
REMARK VINA RESULT:      -4.6      2.883      3.906
REMARK  11 active torsions:
REMARK  status: ('A' for Active; 'I' for Inactive)
REMARK    1  A    between atoms: C3_3  and  C2_2 
REMARK    2  A    between atoms: C4_4  and  C3_3 
REMARK    3  A    between atoms: C5_5  and  C4_4 
REMARK    4  A    between atoms: C6_6  and  C5_5 
REMARK    5  A    between atoms: C7_7  and  C6_6 
REMARK    6  A    between atoms: C8_8  and  C7_7 
REMARK    7  A    between atoms: C9_9  and  C8_8 
REMARK    8  A    between atoms: C10_10  and  C9_9 
REMARK    9  A    between atoms: C11_12  and  C10_10 
REMARK   10  A    between atoms: C11_12  and  C12_13 
REMARK       I    between atoms: C12_13  and  N1_15 
REMARK   11  A    between atoms: C13_16  and  N1_15 
ROOT
ATOM      1  C10 OHN d          40.912  21.601  10.615  0.00  0.00     0.135 C 
ATOM      2  O1  OHN d          41.498  22.667  10.543  0.00  0.00    -0.297 OA
ENDROOT
BRANCH   1   3
ATOM      3  C11 OHN d          41.361  20.524  11.546  0.00  0.00     0.181 C 
BRANCH   3   4
ATOM      4  C12 OHN d          42.598  19.849  11.014  0.00  0.00     0.225 C 
ATOM      5  N1  OHN d          43.704  20.563  10.845  0.00  0.00    -0.347 N 
ATOM      6  H19 OHN d          43.735  21.553  11.042  0.00  0.00     0.163 HD
ATOM      7  O2  OHN d          42.530  18.672  10.753  0.00  0.00    -0.273 OA
BRANCH   5   8
ATOM      8  C13 OHN d          44.853  19.848  10.369  0.00  0.00     0.186 C 
ATOM      9  C14 OHN d          45.696  20.600   9.342  0.00  0.00     0.062 C 
ATOM     10  C15 OHN d          47.174  20.321   9.663  0.00  0.00     0.181 C 
ATOM     11  O4  OHN d          47.186  19.887  11.011  0.00  0.00    -0.320 OA
ATOM     12  C16 OHN d          45.854  19.606  11.432  0.00  0.00     0.281 C 
ATOM     13  O3  OHN d          45.589  19.201  12.531  0.00  0.00    -0.263 OA
ENDBRANCH   5   8
ENDBRANCH   3   4
ENDBRANCH   1   3
BRANCH   1  14
ATOM     14  C9  OHN d          39.751  21.313   9.719  0.00  0.00     0.079 C 
BRANCH  14  15
ATOM     15  C8  OHN d          38.585  20.716  10.469  0.00  0.00     0.007 C 
BRANCH  15  16
ATOM     16  C7  OHN d          37.975  21.884  11.228  0.00  0.00     0.000 C 
BRANCH  16  17
ATOM     17  C6  OHN d          36.979  22.630  10.333  0.00  0.00     0.000 C 
BRANCH  17  18
ATOM     18  C5  OHN d          36.353  23.756  11.142  0.00  0.00     0.000 C 
BRANCH  18  19
ATOM     19  C4  OHN d          35.495  24.617  10.241  0.00  0.00     0.000 C 
BRANCH  19  20
ATOM     20  C3  OHN d          35.925  26.067  10.350  0.00  0.00    -0.000 C 
BRANCH  20  21
ATOM     21  C2  OHN d          36.778  26.250  11.584  0.00  0.00    -0.005 C 
ATOM     22  C1  OHN d          37.798  27.309  11.269  0.00  0.00     0.005 C 
ENDBRANCH  20  21
ENDBRANCH  19  20
ENDBRANCH  18  19
ENDBRANCH  17  18
ENDBRANCH  16  17
ENDBRANCH  15  16
ENDBRANCH  14  15
ENDBRANCH   1  14
TORSDOF 11
ENDMDL
MODEL 18
REMARK VINA RESULT:      -4.6      3.395      6.587
REMARK  11 active torsions:
REMARK  status: ('A' for Active; 'I' for Inactive)
REMARK    1  A    between atoms: C3_3  and  C2_2 
REMARK    2  A    between atoms: C4_4  and  C3_3 
REMARK    3  A    between atoms: C5_5  and  C4_4 
REMARK    4  A    between atoms: C6_6  and  C5_5 
REMARK    5  A    between atoms: C7_7  and  C6_6 
REMARK    6  A    between atoms: C8_8  and  C7_7 
REMARK    7  A    between atoms: C9_9  and  C8_8 
REMARK    8  A    between atoms: C10_10  and  C9_9 
REMARK    9  A    between atoms: C11_12  and  C10_10 
REMARK   10  A    between atoms: C11_12  and  C12_13 
REMARK       I    between atoms: C12_13  and  N1_15 
REMARK   11  A    between atoms: C13_16  and  N1_15 
ROOT
ATOM      1  C10 OHN d          39.477  21.035  10.375  0.00  0.00     0.135 C 
ATOM      2  O1  OHN d          39.308  21.279   9.193  0.00  0.00    -0.297 OA
ENDROOT
BRANCH   1   3
ATOM      3  C11 OHN d          38.350  20.608  11.255  0.00  0.00     0.181 C 
BRANCH   3   4
ATOM      4  C12 OHN d          37.627  21.810  11.805  0.00  0.00     0.225 C 
ATOM      5  N1  OHN d          37.536  22.907  11.064  0.00  0.00    -0.347 N 
ATOM      6  H19 OHN d          37.959  22.968  10.149  0.00  0.00     0.163 HD
ATOM      7  O2  OHN d          37.158  21.726  12.915  0.00  0.00    -0.273 OA
BRANCH   5   8
ATOM      8  C13 OHN d          36.804  23.999  11.636  0.00  0.00     0.186 C 
ATOM      9  C14 OHN d          37.659  25.190  12.066  0.00  0.00     0.062 C 
ATOM     10  C15 OHN d          36.891  26.469  11.690  0.00  0.00     0.181 C 
ATOM     11  O4  OHN d          35.956  26.066  10.706  0.00  0.00    -0.320 OA
ATOM     12  C16 OHN d          35.892  24.644  10.665  0.00  0.00     0.281 C 
ATOM     13  O3  OHN d          35.157  24.045   9.927  0.00  0.00    -0.263 OA
ENDBRANCH   5   8
ENDBRANCH   3   4
ENDBRANCH   1   3
BRANCH   1  14
ATOM     14  C9  OHN d          40.823  21.217  10.999  0.00  0.00     0.079 C 
BRANCH  14  15
ATOM     15  C8  OHN d          41.193  22.674  11.143  0.00  0.00     0.007 C 
BRANCH  15  16
ATOM     16  C7  OHN d          42.705  22.672  11.308  0.00  0.00     0.000 C 
BRANCH  16  17
ATOM     17  C6  OHN d          43.343  23.663  10.329  0.00  0.00     0.000 C 
BRANCH  17  18
ATOM     18  C5  OHN d          44.044  24.750  11.129  0.00  0.00     0.000 C 
BRANCH  18  19
ATOM     19  C4  OHN d          43.545  26.110  10.692  0.00  0.00     0.000 C 
BRANCH  19  20
ATOM     20  C3  OHN d          43.038  26.884  11.893  0.00  0.00    -0.000 C 
BRANCH  20  21
ATOM     21  C2  OHN d          41.738  26.280  12.373  0.00  0.00    -0.005 C 
ATOM     22  C1  OHN d          40.727  27.391  12.439  0.00  0.00     0.005 C 
ENDBRANCH  20  21
ENDBRANCH  19  20
ENDBRANCH  18  19
ENDBRANCH  17  18
ENDBRANCH  16  17
ENDBRANCH  15  16
ENDBRANCH  14  15
ENDBRANCH   1  14
TORSDOF 11
ENDMDL
MODEL 19
REMARK VINA RESULT:      -4.6      0.780      2.087
REMARK  11 active torsions:
REMARK  status: ('A' for Active; 'I' for Inactive)
REMARK    1  A    between atoms: C3_3  and  C2_2 
REMARK    2  A    between atoms: C4_4  and  C3_3 
REMARK    3  A    between atoms: C5_5  and  C4_4 
REMARK    4  A    between atoms: C6_6  and  C5_5 
REMARK    5  A    between atoms: C7_7  and  C6_6 
REMARK    6  A    between atoms: C8_8  and  C7_7 
REMARK    7  A    between atoms: C9_9  and  C8_8 
REMARK    8  A    between atoms: C10_10  and  C9_9 
REMARK    9  A    between atoms: C11_12  and  C10_10 
REMARK   10  A    between atoms: C11_12  and  C12_13 
REMARK       I    between atoms: C12_13  and  N1_15 
REMARK   11  A    between atoms: C13_16  and  N1_15 
ROOT
ATOM      1  C10 OHN d          38.101  21.484  10.906  0.00  0.00     0.135 C 
ATOM      2  O1  OHN d          38.963  21.195  10.094  0.00  0.00    -0.297 OA
ENDROOT
BRANCH   1   3
ATOM      3  C11 OHN d          37.906  20.691  12.156  0.00  0.00     0.181 C 
BRANCH   3   4
ATOM      4  C12 OHN d          39.229  20.186  12.669  0.00  0.00     0.225 C 
ATOM      5  N1  OHN d          39.722  19.052  12.186  0.00  0.00    -0.347 N 
ATOM      6  H19 OHN d          39.224  18.504  11.500  0.00  0.00     0.163 HD
ATOM      7  O2  OHN d          39.793  20.840  13.514  0.00  0.00    -0.273 OA
BRANCH   5   8
ATOM      8  C13 OHN d          41.002  18.650  12.694  0.00  0.00     0.186 C 
ATOM      9  C14 OHN d          41.035  17.260  13.324  0.00  0.00     0.062 C 
ATOM     10  C15 OHN d          42.355  16.593  12.903  0.00  0.00     0.181 C 
ATOM     11  O4  OHN d          42.786  17.308  11.759  0.00  0.00    -0.320 OA
ATOM     12  C16 OHN d          42.016  18.500  11.627  0.00  0.00     0.281 C 
ATOM     13  O3  OHN d          42.196  19.297  10.746  0.00  0.00    -0.263 OA
ENDBRANCH   5   8
ENDBRANCH   3   4
ENDBRANCH   1   3
BRANCH   1  14
ATOM     14  C9  OHN d          37.163  22.618  10.643  0.00  0.00     0.079 C 
BRANCH  14  15
ATOM     15  C8  OHN d          36.842  23.396  11.896  0.00  0.00     0.007 C 
BRANCH  15  16
ATOM     16  C7  OHN d          38.047  24.299  12.109  0.00  0.00     0.000 C 
BRANCH  16  17
ATOM     17  C6  OHN d          37.598  25.657  12.658  0.00  0.00     0.000 C 
BRANCH  17  18
ATOM     18  C5  OHN d          37.524  26.644  11.504  0.00  0.00     0.000 C 
BRANCH  18  19
ATOM     19  C4  OHN d          36.078  26.970  11.201  0.00  0.00     0.000 C 
BRANCH  19  20
ATOM     20  C3  OHN d          35.684  26.376   9.863  0.00  0.00    -0.000 C 
BRANCH  20  21
ATOM     21  C2  OHN d          34.546  25.401  10.058  0.00  0.00    -0.005 C 
ATOM     22  C1  OHN d          33.266  26.184   9.970  0.00  0.00     0.005 C 
ENDBRANCH  20  21
ENDBRANCH  19  20
ENDBRANCH  18  19
ENDBRANCH  17  18
ENDBRANCH  16  17
ENDBRANCH  15  16
ENDBRANCH  14  15
ENDBRANCH   1  14
TORSDOF 11
ENDMDL
MODEL 20
REMARK VINA RESULT:      -4.6      3.846      6.077
REMARK  11 active torsions:
REMARK  status: ('A' for Active; 'I' for Inactive)
REMARK    1  A    between atoms: C3_3  and  C2_2 
REMARK    2  A    between atoms: C4_4  and  C3_3 
REMARK    3  A    between atoms: C5_5  and  C4_4 
REMARK    4  A    between atoms: C6_6  and  C5_5 
REMARK    5  A    between atoms: C7_7  and  C6_6 
REMARK    6  A    between atoms: C8_8  and  C7_7 
REMARK    7  A    between atoms: C9_9  and  C8_8 
REMARK    8  A    between atoms: C10_10  and  C9_9 
REMARK    9  A    between atoms: C11_12  and  C10_10 
REMARK   10  A    between atoms: C11_12  and  C12_13 
REMARK       I    between atoms: C12_13  and  N1_15 
REMARK   11  A    between atoms: C13_16  and  N1_15 
ROOT
ATOM      1  C10 OHN d          43.048  19.798  11.489  0.00  0.00     0.135 C 
ATOM      2  O1  OHN d          43.265  20.115  12.646  0.00  0.00    -0.297 OA
ENDROOT
BRANCH   1   3
ATOM      3  C11 OHN d          44.053  20.037  10.411  0.00  0.00     0.181 C 
BRANCH   3   4
ATOM      4  C12 OHN d          44.534  21.465  10.449  0.00  0.00     0.225 C 
ATOM      5  N1  OHN d          43.761  22.395  10.995  0.00  0.00    -0.347 N 
ATOM      6  H19 OHN d          42.848  22.178  11.367  0.00  0.00     0.163 HD
ATOM      7  O2  OHN d          45.616  21.708   9.969  0.00  0.00    -0.273 OA
BRANCH   5   8
ATOM      8  C13 OHN d          44.298  23.725  11.029  0.00  0.00     0.186 C 
ATOM      9  C14 OHN d          43.544  24.742  10.176  0.00  0.00     0.062 C 
ATOM     10  C15 OHN d          43.485  26.058  10.970  0.00  0.00     0.181 C 
ATOM     11  O4  OHN d          43.720  25.690  12.318  0.00  0.00    -0.320 OA
ATOM     12  C16 OHN d          44.193  24.347  12.368  0.00  0.00     0.281 C 
ATOM     13  O3  OHN d          44.488  23.798  13.395  0.00  0.00    -0.263 OA
ENDBRANCH   5   8
ENDBRANCH   3   4
ENDBRANCH   1   3
BRANCH   1  14
ATOM     14  C9  OHN d          41.731  19.208  11.100  0.00  0.00     0.079 C 
BRANCH  14  15
ATOM     15  C8  OHN d          40.583  20.153  11.358  0.00  0.00     0.007 C 
BRANCH  15  16
ATOM     16  C7  OHN d          40.497  21.007  10.103  0.00  0.00     0.000 C 
BRANCH  16  17
ATOM     17  C6  OHN d          39.041  21.110   9.635  0.00  0.00     0.000 C 
BRANCH  17  18
ATOM     18  C5  OHN d          38.137  21.067  10.857  0.00  0.00     0.000 C 
BRANCH  18  19
ATOM     19  C4  OHN d          37.635  22.460  11.170  0.00  0.00     0.000 C 
BRANCH  19  20
ATOM     20  C3  OHN d          38.180  22.916  12.510  0.00  0.00    -0.000 C 
BRANCH  20  21
ATOM     21  C2  OHN d          39.032  24.149  12.316  0.00  0.00    -0.005 C 
ATOM     22  C1  OHN d          40.461  23.747  12.556  0.00  0.00     0.005 C 
ENDBRANCH  20  21
ENDBRANCH  19  20
ENDBRANCH  18  19
ENDBRANCH  17  18
ENDBRANCH  16  17
ENDBRANCH  15  16
ENDBRANCH  14  15
ENDBRANCH   1  14
TORSDOF 11
ENDMDL
