MODEL 1
REMARK VINA RESULT:      -8.2      0.000      0.000
REMARK  11 active torsions:
REMARK  status: ('A' for Active; 'I' for Inactive)
REMARK    1  A    between atoms: C3_3  and  C2_2 
REMARK    2  A    between atoms: C4_4  and  C3_3 
REMARK    3  A    between atoms: C5_5  and  C4_4 
REMARK    4  A    between atoms: C6_6  and  C5_5 
REMARK    5  A    between atoms: C7_7  and  C6_6 
REMARK    6  A    between atoms: C8_8  and  C7_7 
REMARK    7  A    between atoms: C9_9  and  C8_8 
REMARK    8  A    between atoms: C10_10  and  C9_9 
REMARK    9  A    between atoms: C11_12  and  C10_10 
REMARK   10  A    between atoms: C11_12  and  C12_13 
REMARK       I    between atoms: C12_13  and  N1_15 
REMARK   11  A    between atoms: C13_16  and  N1_15 
ROOT
ATOM      1  C10 OHN d          39.433  17.466  -0.964  0.00  0.00     0.135 C 
ATOM      2  O1  OHN d          39.709  18.167  -1.922  0.00  0.00    -0.297 OA
ENDROOT
BRANCH   1   3
ATOM      3  C11 OHN d          38.590  17.973   0.159  0.00  0.00     0.181 C 
BRANCH   3   4
ATOM      4  C12 OHN d          38.371  19.457   0.023  0.00  0.00     0.225 C 
ATOM      5  N1  OHN d          39.422  20.263  -0.062  0.00  0.00    -0.347 N 
ATOM      6  H19 OHN d          40.367  19.912  -0.015  0.00  0.00     0.163 HD
ATOM      7  O2  OHN d          37.232  19.860   0.002  0.00  0.00    -0.273 OA
BRANCH   5   8
ATOM      8  C13 OHN d          39.139  21.659  -0.225  0.00  0.00     0.186 C 
ATOM      9  C14 OHN d          39.392  22.515   1.014  0.00  0.00     0.062 C 
ATOM     10  C15 OHN d          40.022  23.836   0.543  0.00  0.00     0.181 C 
ATOM     11  O4  OHN d          40.540  23.563  -0.747  0.00  0.00    -0.320 OA
ATOM     12  C16 OHN d          40.036  22.312  -1.205  0.00  0.00     0.281 C 
ATOM     13  O3  OHN d          40.308  21.855  -2.283  0.00  0.00    -0.263 OA
ENDBRANCH   5   8
ENDBRANCH   3   4
ENDBRANCH   1   3
BRANCH   1  14
ATOM     14  C9  OHN d          39.986  16.082  -0.855  0.00  0.00     0.079 C 
BRANCH  14  15
ATOM     15  C8  OHN d          40.175  15.435  -2.206  0.00  0.00     0.007 C 
BRANCH  15  16
ATOM     16  C7  OHN d          41.644  15.043  -2.243  0.00  0.00     0.000 C 
BRANCH  16  17
ATOM     17  C6  OHN d          41.948  14.030  -1.133  0.00  0.00     0.000 C 
BRANCH  17  18
ATOM     18  C5  OHN d          41.540  12.647  -1.618  0.00  0.00     0.000 C 
BRANCH  18  19
ATOM     19  C4  OHN d          40.833  11.904  -0.506  0.00  0.00     0.000 C 
BRANCH  19  20
ATOM     20  C3  OHN d          40.774  12.769   0.738  0.00  0.00    -0.000 C 
BRANCH  20  21
ATOM     21  C2  OHN d          40.507  11.899   1.946  0.00  0.00    -0.005 C 
ATOM     22  C1  OHN d          41.043  10.529   1.637  0.00  0.00     0.005 C 
ENDBRANCH  20  21
ENDBRANCH  19  20
ENDBRANCH  18  19
ENDBRANCH  17  18
ENDBRANCH  16  17
ENDBRANCH  15  16
ENDBRANCH  14  15
ENDBRANCH   1  14
TORSDOF 11
ENDMDL
MODEL 2
REMARK VINA RESULT:      -7.9      0.841      1.020
REMARK  11 active torsions:
REMARK  status: ('A' for Active; 'I' for Inactive)
REMARK    1  A    between atoms: C3_3  and  C2_2 
REMARK    2  A    between atoms: C4_4  and  C3_3 
REMARK    3  A    between atoms: C5_5  and  C4_4 
REMARK    4  A    between atoms: C6_6  and  C5_5 
REMARK    5  A    between atoms: C7_7  and  C6_6 
REMARK    6  A    between atoms: C8_8  and  C7_7 
REMARK    7  A    between atoms: C9_9  and  C8_8 
REMARK    8  A    between atoms: C10_10  and  C9_9 
REMARK    9  A    between atoms: C11_12  and  C10_10 
REMARK   10  A    between atoms: C11_12  and  C12_13 
REMARK       I    between atoms: C12_13  and  N1_15 
REMARK   11  A    between atoms: C13_16  and  N1_15 
ROOT
ATOM      1  C10 OHN d          40.034  17.426  -2.500  0.00  0.00     0.135 C 
ATOM      2  O1  OHN d          40.208  18.442  -3.150  0.00  0.00    -0.297 OA
ENDROOT
BRANCH   1   3
ATOM      3  C11 OHN d          39.522  17.472  -1.099  0.00  0.00     0.181 C 
BRANCH   3   4
ATOM      4  C12 OHN d          38.968  18.838  -0.786  0.00  0.00     0.225 C 
ATOM      5  N1  OHN d          39.786  19.882  -0.775  0.00  0.00    -0.347 N 
ATOM      6  H19 OHN d          40.777  19.785  -0.946  0.00  0.00     0.163 HD
ATOM      7  O2  OHN d          37.786  18.927  -0.551  0.00  0.00    -0.273 OA
BRANCH   5   8
ATOM      8  C13 OHN d          39.185  21.156  -0.505  0.00  0.00     0.186 C 
ATOM      9  C14 OHN d          39.238  21.594   0.957  0.00  0.00     0.062 C 
ATOM     10  C15 OHN d          39.541  23.102   0.976  0.00  0.00     0.181 C 
ATOM     11  O4  OHN d          40.102  23.386  -0.292  0.00  0.00    -0.320 OA
ATOM     12  C16 OHN d          39.901  22.274  -1.160  0.00  0.00     0.281 C 
ATOM     13  O3  OHN d          40.266  22.266  -2.305  0.00  0.00    -0.263 OA
ENDBRANCH   5   8
ENDBRANCH   3   4
ENDBRANCH   1   3
BRANCH   1  14
ATOM     14  C9  OHN d          40.390  16.091  -3.072  0.00  0.00     0.079 C 
BRANCH  14  15
ATOM     15  C8  OHN d          40.397  15.004  -2.025  0.00  0.00     0.007 C 
BRANCH  15  16
ATOM     16  C7  OHN d          41.835  14.513  -1.989  0.00  0.00     0.000 C 
BRANCH  16  17
ATOM     17  C6  OHN d          42.005  13.460  -0.888  0.00  0.00     0.000 C 
BRANCH  17  18
ATOM     18  C5  OHN d          41.194  12.230  -1.267  0.00  0.00     0.000 C 
BRANCH  18  19
ATOM     19  C4  OHN d          40.726  11.522  -0.015  0.00  0.00     0.000 C 
BRANCH  19  20
ATOM     20  C3  OHN d          40.758  12.477   1.163  0.00  0.00    -0.000 C 
BRANCH  20  21
ATOM     21  C2  OHN d          40.399  11.731   2.428  0.00  0.00    -0.005 C 
ATOM     22  C1  OHN d          41.204  10.461   2.442  0.00  0.00     0.005 C 
ENDBRANCH  20  21
ENDBRANCH  19  20
ENDBRANCH  18  19
ENDBRANCH  17  18
ENDBRANCH  16  17
ENDBRANCH  15  16
ENDBRANCH  14  15
ENDBRANCH   1  14
TORSDOF 11
ENDMDL
MODEL 3
REMARK VINA RESULT:      -7.8      3.464      8.830
REMARK  11 active torsions:
REMARK  status: ('A' for Active; 'I' for Inactive)
REMARK    1  A    between atoms: C3_3  and  C2_2 
REMARK    2  A    between atoms: C4_4  and  C3_3 
REMARK    3  A    between atoms: C5_5  and  C4_4 
REMARK    4  A    between atoms: C6_6  and  C5_5 
REMARK    5  A    between atoms: C7_7  and  C6_6 
REMARK    6  A    between atoms: C8_8  and  C7_7 
REMARK    7  A    between atoms: C9_9  and  C8_8 
REMARK    8  A    between atoms: C10_10  and  C9_9 
REMARK    9  A    between atoms: C11_12  and  C10_10 
REMARK   10  A    between atoms: C11_12  and  C12_13 
REMARK       I    between atoms: C12_13  and  N1_15 
REMARK   11  A    between atoms: C13_16  and  N1_15 
ROOT
ATOM      1  C10 OHN d          39.355  15.427  -1.252  0.00  0.00     0.135 C 
ATOM      2  O1  OHN d          38.220  14.983  -1.221  0.00  0.00    -0.297 OA
ENDROOT
BRANCH   1   3
ATOM      3  C11 OHN d          40.504  14.605  -1.734  0.00  0.00     0.181 C 
BRANCH   3   4
ATOM      4  C12 OHN d          41.089  13.804  -0.600  0.00  0.00     0.225 C 
ATOM      5  N1  OHN d          40.274  13.189   0.247  0.00  0.00    -0.347 N 
ATOM      6  H19 OHN d          39.270  13.262   0.169  0.00  0.00     0.163 HD
ATOM      7  O2  OHN d          42.292  13.757  -0.505  0.00  0.00    -0.273 OA
BRANCH   5   8
ATOM      8  C13 OHN d          40.899  12.415   1.280  0.00  0.00     0.186 C 
ATOM      9  C14 OHN d          40.178  12.439   2.626  0.00  0.00     0.062 C 
ATOM     10  C15 OHN d          40.243  11.018   3.210  0.00  0.00     0.181 C 
ATOM     11  O4  OHN d          40.514  10.173   2.106  0.00  0.00    -0.320 OA
ATOM     12  C16 OHN d          40.897  10.965   0.986  0.00  0.00     0.281 C 
ATOM     13  O3  OHN d          41.200  10.489  -0.075  0.00  0.00    -0.263 OA
ENDBRANCH   5   8
ENDBRANCH   3   4
ENDBRANCH   1   3
BRANCH   1  14
ATOM     14  C9  OHN d          39.642  16.805  -0.747  0.00  0.00     0.079 C 
BRANCH  14  15
ATOM     15  C8  OHN d          39.817  17.799  -1.869  0.00  0.00     0.007 C 
BRANCH  15  16
ATOM     16  C7  OHN d          39.323  19.118  -1.296  0.00  0.00     0.000 C 
BRANCH  16  17
ATOM     17  C6  OHN d          38.305  18.860  -0.180  0.00  0.00     0.000 C 
BRANCH  17  18
ATOM     18  C5  OHN d          38.332  20.038   0.781  0.00  0.00     0.000 C 
BRANCH  18  19
ATOM     19  C4  OHN d          38.916  21.250   0.088  0.00  0.00     0.000 C 
BRANCH  19  20
ATOM     20  C3  OHN d          39.477  22.213   1.116  0.00  0.00    -0.000 C 
BRANCH  20  21
ATOM     21  C2  OHN d          39.842  23.515   0.441  0.00  0.00    -0.005 C 
ATOM     22  C1  OHN d          40.451  23.173  -0.891  0.00  0.00     0.005 C 
ENDBRANCH  20  21
ENDBRANCH  19  20
ENDBRANCH  18  19
ENDBRANCH  17  18
ENDBRANCH  16  17
ENDBRANCH  15  16
ENDBRANCH  14  15
ENDBRANCH   1  14
TORSDOF 11
ENDMDL
MODEL 4
REMARK VINA RESULT:      -7.7      0.863      1.753
REMARK  11 active torsions:
REMARK  status: ('A' for Active; 'I' for Inactive)
REMARK    1  A    between atoms: C3_3  and  C2_2 
REMARK    2  A    between atoms: C4_4  and  C3_3 
REMARK    3  A    between atoms: C5_5  and  C4_4 
REMARK    4  A    between atoms: C6_6  and  C5_5 
REMARK    5  A    between atoms: C7_7  and  C6_6 
REMARK    6  A    between atoms: C8_8  and  C7_7 
REMARK    7  A    between atoms: C9_9  and  C8_8 
REMARK    8  A    between atoms: C10_10  and  C9_9 
REMARK    9  A    between atoms: C11_12  and  C10_10 
REMARK   10  A    between atoms: C11_12  and  C12_13 
REMARK       I    between atoms: C12_13  and  N1_15 
REMARK   11  A    between atoms: C13_16  and  N1_15 
ROOT
ATOM      1  C10 OHN d          39.474  17.577  -1.186  0.00  0.00     0.135 C 
ATOM      2  O1  OHN d          39.777  18.349  -2.079  0.00  0.00    -0.297 OA
ENDROOT
BRANCH   1   3
ATOM      3  C11 OHN d          38.652  18.015  -0.019  0.00  0.00     0.181 C 
BRANCH   3   4
ATOM      4  C12 OHN d          38.402  19.499  -0.079  0.00  0.00     0.225 C 
ATOM      5  N1  OHN d          39.435  20.332  -0.064  0.00  0.00    -0.347 N 
ATOM      6  H19 OHN d          40.386  20.000   0.011  0.00  0.00     0.163 HD
ATOM      7  O2  OHN d          37.255  19.876  -0.135  0.00  0.00    -0.273 OA
BRANCH   5   8
ATOM      8  C13 OHN d          39.125  21.729  -0.160  0.00  0.00     0.186 C 
ATOM      9  C14 OHN d          39.435  22.543   1.094  0.00  0.00     0.062 C 
ATOM     10  C15 OHN d          40.021  23.890   0.637  0.00  0.00     0.181 C 
ATOM     11  O4  OHN d          40.469  23.671  -0.688  0.00  0.00    -0.320 OA
ATOM     12  C16 OHN d          39.957  22.429  -1.164  0.00  0.00     0.281 C 
ATOM     13  O3  OHN d          40.174  22.016  -2.271  0.00  0.00    -0.263 OA
ENDBRANCH   5   8
ENDBRANCH   3   4
ENDBRANCH   1   3
BRANCH   1  14
ATOM     14  C9  OHN d          39.974  16.169  -1.201  0.00  0.00     0.079 C 
BRANCH  14  15
ATOM     15  C8  OHN d          39.964  15.574  -2.589  0.00  0.00     0.007 C 
BRANCH  15  16
ATOM     16  C7  OHN d          38.924  14.467  -2.526  0.00  0.00     0.000 C 
BRANCH  16  17
ATOM     17  C6  OHN d          38.547  14.179  -1.069  0.00  0.00     0.000 C 
BRANCH  17  18
ATOM     18  C5  OHN d          38.909  12.736  -0.753  0.00  0.00     0.000 C 
BRANCH  18  19
ATOM     19  C4  OHN d          40.035  12.701   0.257  0.00  0.00     0.000 C 
BRANCH  19  20
ATOM     20  C3  OHN d          41.077  11.684  -0.166  0.00  0.00    -0.000 C 
BRANCH  20  21
ATOM     21  C2  OHN d          41.435  11.902  -1.619  0.00  0.00    -0.005 C 
ATOM     22  C1  OHN d          42.332  13.107  -1.681  0.00  0.00     0.005 C 
ENDBRANCH  20  21
ENDBRANCH  19  20
ENDBRANCH  18  19
ENDBRANCH  17  18
ENDBRANCH  16  17
ENDBRANCH  15  16
ENDBRANCH  14  15
ENDBRANCH   1  14
TORSDOF 11
ENDMDL
MODEL 5
REMARK VINA RESULT:      -7.6      3.061      8.773
REMARK  11 active torsions:
REMARK  status: ('A' for Active; 'I' for Inactive)
REMARK    1  A    between atoms: C3_3  and  C2_2 
REMARK    2  A    between atoms: C4_4  and  C3_3 
REMARK    3  A    between atoms: C5_5  and  C4_4 
REMARK    4  A    between atoms: C6_6  and  C5_5 
REMARK    5  A    between atoms: C7_7  and  C6_6 
REMARK    6  A    between atoms: C8_8  and  C7_7 
REMARK    7  A    between atoms: C9_9  and  C8_8 
REMARK    8  A    between atoms: C10_10  and  C9_9 
REMARK    9  A    between atoms: C11_12  and  C10_10 
REMARK   10  A    between atoms: C11_12  and  C12_13 
REMARK       I    between atoms: C12_13  and  N1_15 
REMARK   11  A    between atoms: C13_16  and  N1_15 
ROOT
ATOM      1  C10 OHN d          40.213  16.843  -2.803  0.00  0.00     0.135 C 
ATOM      2  O1  OHN d          40.619  17.577  -3.687  0.00  0.00    -0.297 OA
ENDROOT
BRANCH   1   3
ATOM      3  C11 OHN d          40.022  15.380  -3.028  0.00  0.00     0.181 C 
BRANCH   3   4
ATOM      4  C12 OHN d          40.846  14.585  -2.049  0.00  0.00     0.225 C 
ATOM      5  N1  OHN d          40.238  13.747  -1.219  0.00  0.00    -0.347 N 
ATOM      6  H19 OHN d          39.234  13.644  -1.207  0.00  0.00     0.163 HD
ATOM      7  O2  OHN d          42.043  14.749  -2.057  0.00  0.00    -0.273 OA
BRANCH   5   8
ATOM      8  C13 OHN d          41.088  12.998  -0.340  0.00  0.00     0.186 C 
ATOM      9  C14 OHN d          40.495  12.715   1.039  0.00  0.00     0.062 C 
ATOM     10  C15 OHN d          40.883  11.276   1.422  0.00  0.00     0.181 C 
ATOM     11  O4  OHN d          41.213  10.641   0.200  0.00  0.00    -0.320 OA
ATOM     12  C16 OHN d          41.339  11.622  -0.826  0.00  0.00     0.281 C 
ATOM     13  O3  OHN d          41.634  11.347  -1.958  0.00  0.00    -0.263 OA
ENDBRANCH   5   8
ENDBRANCH   3   4
ENDBRANCH   1   3
BRANCH   1  14
ATOM     14  C9  OHN d          39.834  17.402  -1.470  0.00  0.00     0.079 C 
BRANCH  14  15
ATOM     15  C8  OHN d          39.489  18.870  -1.543  0.00  0.00     0.007 C 
BRANCH  15  16
ATOM     16  C7  OHN d          38.453  19.078  -0.450  0.00  0.00     0.000 C 
BRANCH  16  17
ATOM     17  C6  OHN d          38.254  20.576  -0.191  0.00  0.00     0.000 C 
BRANCH  17  18
ATOM     18  C5  OHN d          38.755  20.894   1.210  0.00  0.00     0.000 C 
BRANCH  18  19
ATOM     19  C4  OHN d          39.647  22.115   1.168  0.00  0.00     0.000 C 
BRANCH  19  20
ATOM     20  C3  OHN d          40.380  22.175  -0.158  0.00  0.00    -0.000 C 
BRANCH  20  21
ATOM     21  C2  OHN d          40.449  23.609  -0.632  0.00  0.00    -0.005 C 
ATOM     22  C1  OHN d          39.656  24.439   0.339  0.00  0.00     0.005 C 
ENDBRANCH  20  21
ENDBRANCH  19  20
ENDBRANCH  18  19
ENDBRANCH  17  18
ENDBRANCH  16  17
ENDBRANCH  15  16
ENDBRANCH  14  15
ENDBRANCH   1  14
TORSDOF 11
ENDMDL
MODEL 6
REMARK VINA RESULT:      -7.4      2.389      4.519
REMARK  11 active torsions:
REMARK  status: ('A' for Active; 'I' for Inactive)
REMARK    1  A    between atoms: C3_3  and  C2_2 
REMARK    2  A    between atoms: C4_4  and  C3_3 
REMARK    3  A    between atoms: C5_5  and  C4_4 
REMARK    4  A    between atoms: C6_6  and  C5_5 
REMARK    5  A    between atoms: C7_7  and  C6_6 
REMARK    6  A    between atoms: C8_8  and  C7_7 
REMARK    7  A    between atoms: C9_9  and  C8_8 
REMARK    8  A    between atoms: C10_10  and  C9_9 
REMARK    9  A    between atoms: C11_12  and  C10_10 
REMARK   10  A    between atoms: C11_12  and  C12_13 
REMARK       I    between atoms: C12_13  and  N1_15 
REMARK   11  A    between atoms: C13_16  and  N1_15 
ROOT
ATOM      1  C10 OHN d          41.594  13.109  -1.500  0.00  0.00     0.135 C 
ATOM      2  O1  OHN d          41.837  12.124  -2.175  0.00  0.00    -0.297 OA
ENDROOT
BRANCH   1   3
ATOM      3  C11 OHN d          41.930  14.485  -1.974  0.00  0.00     0.181 C 
BRANCH   3   4
ATOM      4  C12 OHN d          40.698  15.351  -1.989  0.00  0.00     0.225 C 
ATOM      5  N1  OHN d          40.629  16.394  -1.171  0.00  0.00    -0.347 N 
ATOM      6  H19 OHN d          41.370  16.611  -0.520  0.00  0.00     0.163 HD
ATOM      7  O2  OHN d          39.809  15.055  -2.752  0.00  0.00    -0.273 OA
BRANCH   5   8
ATOM      8  C13 OHN d          39.443  17.196  -1.265  0.00  0.00     0.186 C 
ATOM      9  C14 OHN d          38.879  17.665   0.074  0.00  0.00     0.062 C 
ATOM     10  C15 OHN d          38.403  19.116  -0.109  0.00  0.00     0.181 C 
ATOM     11  O4  OHN d          39.080  19.589  -1.259  0.00  0.00    -0.320 OA
ATOM     12  C16 OHN d          39.683  18.491  -1.939  0.00  0.00     0.281 C 
ATOM     13  O3  OHN d          40.304  18.619  -2.960  0.00  0.00    -0.263 OA
ENDBRANCH   5   8
ENDBRANCH   3   4
ENDBRANCH   1   3
BRANCH   1  14
ATOM     14  C9  OHN d          40.998  12.964  -0.137  0.00  0.00     0.079 C 
BRANCH  14  15
ATOM     15  C8  OHN d          39.605  12.385  -0.181  0.00  0.00     0.007 C 
BRANCH  15  16
ATOM     16  C7  OHN d          39.654  11.191   0.760  0.00  0.00     0.000 C 
BRANCH  16  17
ATOM     17  C6  OHN d          41.035  10.528   0.699  0.00  0.00     0.000 C 
BRANCH  17  18
ATOM     18  C5  OHN d          41.454  10.154   2.112  0.00  0.00     0.000 C 
BRANCH  18  19
ATOM     19  C4  OHN d          40.332  10.468   3.078  0.00  0.00     0.000 C 
BRANCH  19  20
ATOM     20  C3  OHN d          40.655  11.732   3.851  0.00  0.00    -0.000 C 
BRANCH  20  21
ATOM     21  C2  OHN d          39.393  12.272   4.484  0.00  0.00    -0.005 C 
ATOM     22  C1  OHN d          38.438  11.120   4.631  0.00  0.00     0.005 C 
ENDBRANCH  20  21
ENDBRANCH  19  20
ENDBRANCH  18  19
ENDBRANCH  17  18
ENDBRANCH  16  17
ENDBRANCH  15  16
ENDBRANCH  14  15
ENDBRANCH   1  14
TORSDOF 11
ENDMDL
MODEL 7
REMARK VINA RESULT:      -7.4      3.356      8.845
REMARK  11 active torsions:
REMARK  status: ('A' for Active; 'I' for Inactive)
REMARK    1  A    between atoms: C3_3  and  C2_2 
REMARK    2  A    between atoms: C4_4  and  C3_3 
REMARK    3  A    between atoms: C5_5  and  C4_4 
REMARK    4  A    between atoms: C6_6  and  C5_5 
REMARK    5  A    between atoms: C7_7  and  C6_6 
REMARK    6  A    between atoms: C8_8  and  C7_7 
REMARK    7  A    between atoms: C9_9  and  C8_8 
REMARK    8  A    between atoms: C10_10  and  C9_9 
REMARK    9  A    between atoms: C11_12  and  C10_10 
REMARK   10  A    between atoms: C11_12  and  C12_13 
REMARK       I    between atoms: C12_13  and  N1_15 
REMARK   11  A    between atoms: C13_16  and  N1_15 
ROOT
ATOM      1  C10 OHN d          40.046  15.517  -1.557  0.00  0.00     0.135 C 
ATOM      2  O1  OHN d          39.103  14.844  -1.936  0.00  0.00    -0.297 OA
ENDROOT
BRANCH   1   3
ATOM      3  C11 OHN d          41.438  14.979  -1.547  0.00  0.00     0.181 C 
BRANCH   3   4
ATOM      4  C12 OHN d          41.451  13.564  -1.031  0.00  0.00     0.225 C 
ATOM      5  N1  OHN d          41.057  13.324   0.213  0.00  0.00    -0.347 N 
ATOM      6  H19 OHN d          40.771  14.067   0.834  0.00  0.00     0.163 HD
ATOM      7  O2  OHN d          41.829  12.694  -1.779  0.00  0.00    -0.273 OA
BRANCH   5   8
ATOM      8  C13 OHN d          41.061  11.950   0.626  0.00  0.00     0.186 C 
ATOM      9  C14 OHN d          41.598  11.705   2.034  0.00  0.00     0.062 C 
ATOM     10  C15 OHN d          40.714  10.627   2.684  0.00  0.00     0.181 C 
ATOM     11  O4  OHN d          39.512  10.630   1.935  0.00  0.00    -0.320 OA
ATOM     12  C16 OHN d          39.698  11.387   0.742  0.00  0.00     0.281 C 
ATOM     13  O3  OHN d          38.834  11.529  -0.081  0.00  0.00    -0.263 OA
ENDBRANCH   5   8
ENDBRANCH   3   4
ENDBRANCH   1   3
BRANCH   1  14
ATOM     14  C9  OHN d          39.825  16.898  -1.027  0.00  0.00     0.079 C 
BRANCH  14  15
ATOM     15  C8  OHN d          39.889  17.943  -2.114  0.00  0.00     0.007 C 
BRANCH  15  16
ATOM     16  C7  OHN d          39.440  19.230  -1.439  0.00  0.00     0.000 C 
BRANCH  16  17
ATOM     17  C6  OHN d          38.346  18.930  -0.409  0.00  0.00     0.000 C 
BRANCH  17  18
ATOM     18  C5  OHN d          38.390  20.002   0.669  0.00  0.00     0.000 C 
BRANCH  18  19
ATOM     19  C4  OHN d          38.800  21.324   0.058  0.00  0.00     0.000 C 
BRANCH  19  20
ATOM     20  C3  OHN d          39.424  22.212   1.117  0.00  0.00    -0.000 C 
BRANCH  20  21
ATOM     21  C2  OHN d          39.986  23.455   0.467  0.00  0.00    -0.005 C 
ATOM     22  C1  OHN d          40.399  23.081  -0.930  0.00  0.00     0.005 C 
ENDBRANCH  20  21
ENDBRANCH  19  20
ENDBRANCH  18  19
ENDBRANCH  17  18
ENDBRANCH  16  17
ENDBRANCH  15  16
ENDBRANCH  14  15
ENDBRANCH   1  14
TORSDOF 11
ENDMDL
MODEL 8
REMARK VINA RESULT:      -7.4      1.260      1.833
REMARK  11 active torsions:
REMARK  status: ('A' for Active; 'I' for Inactive)
REMARK    1  A    between atoms: C3_3  and  C2_2 
REMARK    2  A    between atoms: C4_4  and  C3_3 
REMARK    3  A    between atoms: C5_5  and  C4_4 
REMARK    4  A    between atoms: C6_6  and  C5_5 
REMARK    5  A    between atoms: C7_7  and  C6_6 
REMARK    6  A    between atoms: C8_8  and  C7_7 
REMARK    7  A    between atoms: C9_9  and  C8_8 
REMARK    8  A    between atoms: C10_10  and  C9_9 
REMARK    9  A    between atoms: C11_12  and  C10_10 
REMARK   10  A    between atoms: C11_12  and  C12_13 
REMARK       I    between atoms: C12_13  and  N1_15 
REMARK   11  A    between atoms: C13_16  and  N1_15 
ROOT
ATOM      1  C10 OHN d          40.038  16.648  -1.477  0.00  0.00     0.135 C 
ATOM      2  O1  OHN d          39.884  16.674  -0.268  0.00  0.00    -0.297 OA
ENDROOT
BRANCH   1   3
ATOM      3  C11 OHN d          39.985  17.894  -2.299  0.00  0.00     0.181 C 
BRANCH   3   4
ATOM      4  C12 OHN d          39.289  18.994  -1.541  0.00  0.00     0.225 C 
ATOM      5  N1  OHN d          39.949  20.112  -1.268  0.00  0.00    -0.347 N 
ATOM      6  H19 OHN d          40.915  20.238  -1.534  0.00  0.00     0.163 HD
ATOM      7  O2  OHN d          38.144  18.809  -1.204  0.00  0.00    -0.273 OA
BRANCH   5   8
ATOM      8  C13 OHN d          39.214  21.130  -0.576  0.00  0.00     0.186 C 
ATOM      9  C14 OHN d          39.232  21.012   0.946  0.00  0.00     0.062 C 
ATOM     10  C15 OHN d          39.366  22.434   1.518  0.00  0.00     0.181 C 
ATOM     11  O4  OHN d          39.881  23.216   0.456  0.00  0.00    -0.320 OA
ATOM     12  C16 OHN d          39.796  22.478  -0.761  0.00  0.00     0.281 C 
ATOM     13  O3  OHN d          40.150  22.924  -1.819  0.00  0.00    -0.263 OA
ENDBRANCH   5   8
ENDBRANCH   3   4
ENDBRANCH   1   3
BRANCH   1  14
ATOM     14  C9  OHN d          40.227  15.347  -2.189  0.00  0.00     0.079 C 
BRANCH  14  15
ATOM     15  C8  OHN d          41.548  14.699  -1.851  0.00  0.00     0.007 C 
BRANCH  15  16
ATOM     16  C7  OHN d          41.197  13.255  -1.527  0.00  0.00     0.000 C 
BRANCH  16  17
ATOM     17  C6  OHN d          40.957  13.096  -0.022  0.00  0.00     0.000 C 
BRANCH  17  18
ATOM     18  C5  OHN d          40.043  11.900   0.198  0.00  0.00     0.000 C 
BRANCH  18  19
ATOM     19  C4  OHN d          40.850  10.728   0.710  0.00  0.00     0.000 C 
BRANCH  19  20
ATOM     20  C3  OHN d          41.192  10.935   2.173  0.00  0.00    -0.000 C 
BRANCH  20  21
ATOM     21  C2  OHN d          39.938  10.814   3.008  0.00  0.00    -0.005 C 
ATOM     22  C1  OHN d          39.998  11.884   4.062  0.00  0.00     0.005 C 
ENDBRANCH  20  21
ENDBRANCH  19  20
ENDBRANCH  18  19
ENDBRANCH  17  18
ENDBRANCH  16  17
ENDBRANCH  15  16
ENDBRANCH  14  15
ENDBRANCH   1  14
TORSDOF 11
ENDMDL
MODEL 9
REMARK VINA RESULT:      -7.3      3.385      8.837
REMARK  11 active torsions:
REMARK  status: ('A' for Active; 'I' for Inactive)
REMARK    1  A    between atoms: C3_3  and  C2_2 
REMARK    2  A    between atoms: C4_4  and  C3_3 
REMARK    3  A    between atoms: C5_5  and  C4_4 
REMARK    4  A    between atoms: C6_6  and  C5_5 
REMARK    5  A    between atoms: C7_7  and  C6_6 
REMARK    6  A    between atoms: C8_8  and  C7_7 
REMARK    7  A    between atoms: C9_9  and  C8_8 
REMARK    8  A    between atoms: C10_10  and  C9_9 
REMARK    9  A    between atoms: C11_12  and  C10_10 
REMARK   10  A    between atoms: C11_12  and  C12_13 
REMARK       I    between atoms: C12_13  and  N1_15 
REMARK   11  A    between atoms: C13_16  and  N1_15 
ROOT
ATOM      1  C10 OHN d          40.200  15.564  -1.981  0.00  0.00     0.135 C 
ATOM      2  O1  OHN d          39.786  15.202  -3.068  0.00  0.00    -0.297 OA
ENDROOT
BRANCH   1   3
ATOM      3  C11 OHN d          41.159  14.736  -1.193  0.00  0.00     0.181 C 
BRANCH   3   4
ATOM      4  C12 OHN d          40.436  13.613  -0.496  0.00  0.00     0.225 C 
ATOM      5  N1  OHN d          41.054  12.941   0.466  0.00  0.00    -0.347 N 
ATOM      6  H19 OHN d          42.007  13.145   0.730  0.00  0.00     0.163 HD
ATOM      7  O2  OHN d          39.308  13.364  -0.851  0.00  0.00    -0.273 OA
BRANCH   5   8
ATOM      8  C13 OHN d          40.293  11.910   1.110  0.00  0.00     0.186 C 
ATOM      9  C14 OHN d          40.853  10.499   0.941  0.00  0.00     0.062 C 
ATOM     10  C15 OHN d          40.684   9.771   2.286  0.00  0.00     0.181 C 
ATOM     11  O4  OHN d          40.523  10.798   3.247  0.00  0.00    -0.320 OA
ATOM     12  C16 OHN d          40.293  12.038   2.584  0.00  0.00     0.281 C 
ATOM     13  O3  OHN d          40.104  13.068   3.174  0.00  0.00    -0.263 OA
ENDBRANCH   5   8
ENDBRANCH   3   4
ENDBRANCH   1   3
BRANCH   1  14
ATOM     14  C9  OHN d          39.707  16.836  -1.369  0.00  0.00     0.079 C 
BRANCH  14  15
ATOM     15  C8  OHN d          39.901  18.022  -2.283  0.00  0.00     0.007 C 
BRANCH  15  16
ATOM     16  C7  OHN d          39.491  19.224  -1.447  0.00  0.00     0.000 C 
BRANCH  16  17
ATOM     17  C6  OHN d          38.516  18.793  -0.346  0.00  0.00     0.000 C 
BRANCH  17  18
ATOM     18  C5  OHN d          38.380  19.933   0.651  0.00  0.00     0.000 C 
BRANCH  18  19
ATOM     19  C4  OHN d          38.833  21.228   0.013  0.00  0.00     0.000 C 
BRANCH  19  20
ATOM     20  C3  OHN d          39.345  22.178   1.078  0.00  0.00    -0.000 C 
BRANCH  20  21
ATOM     21  C2  OHN d          40.048  23.343   0.420  0.00  0.00    -0.005 C 
ATOM     22  C1  OHN d          40.297  22.962  -1.014  0.00  0.00     0.005 C 
ENDBRANCH  20  21
ENDBRANCH  19  20
ENDBRANCH  18  19
ENDBRANCH  17  18
ENDBRANCH  16  17
ENDBRANCH  15  16
ENDBRANCH  14  15
ENDBRANCH   1  14
TORSDOF 11
ENDMDL
MODEL 10
REMARK VINA RESULT:      -7.2      1.546      2.692
REMARK  11 active torsions:
REMARK  status: ('A' for Active; 'I' for Inactive)
REMARK    1  A    between atoms: C3_3  and  C2_2 
REMARK    2  A    between atoms: C4_4  and  C3_3 
REMARK    3  A    between atoms: C5_5  and  C4_4 
REMARK    4  A    between atoms: C6_6  and  C5_5 
REMARK    5  A    between atoms: C7_7  and  C6_6 
REMARK    6  A    between atoms: C8_8  and  C7_7 
REMARK    7  A    between atoms: C9_9  and  C8_8 
REMARK    8  A    between atoms: C10_10  and  C9_9 
REMARK    9  A    between atoms: C11_12  and  C10_10 
REMARK   10  A    between atoms: C11_12  and  C12_13 
REMARK       I    between atoms: C12_13  and  N1_15 
REMARK   11  A    between atoms: C13_16  and  N1_15 
ROOT
ATOM      1  C10 OHN d          40.053  15.628  -2.439  0.00  0.00     0.135 C 
ATOM      2  O1  OHN d          40.461  16.351  -3.331  0.00  0.00    -0.297 OA
ENDROOT
BRANCH   1   3
ATOM      3  C11 OHN d          38.997  16.081  -1.486  0.00  0.00     0.181 C 
BRANCH   3   4
ATOM      4  C12 OHN d          39.409  17.366  -0.816  0.00  0.00     0.225 C 
ATOM      5  N1  OHN d          39.214  18.517  -1.446  0.00  0.00    -0.347 N 
ATOM      6  H19 OHN d          38.818  18.557  -2.374  0.00  0.00     0.163 HD
ATOM      7  O2  OHN d          39.912  17.294   0.280  0.00  0.00    -0.273 OA
BRANCH   5   8
ATOM      8  C13 OHN d          39.598  19.702  -0.735  0.00  0.00     0.186 C 
ATOM      9  C14 OHN d          40.182  20.813  -1.605  0.00  0.00     0.062 C 
ATOM     10  C15 OHN d          39.630  22.149  -1.081  0.00  0.00     0.181 C 
ATOM     11  O4  OHN d          38.474  21.809  -0.337  0.00  0.00    -0.320 OA
ATOM     12  C16 OHN d          38.443  20.400  -0.125  0.00  0.00     0.281 C 
ATOM     13  O3  OHN d          37.573  19.853   0.498  0.00  0.00    -0.263 OA
ENDBRANCH   5   8
ENDBRANCH   3   4
ENDBRANCH   1   3
BRANCH   1  14
ATOM     14  C9  OHN d          40.647  14.272  -2.232  0.00  0.00     0.079 C 
BRANCH  14  15
ATOM     15  C8  OHN d          41.898  14.319  -1.389  0.00  0.00     0.007 C 
BRANCH  15  16
ATOM     16  C7  OHN d          41.713  13.214  -0.361  0.00  0.00     0.000 C 
BRANCH  16  17
ATOM     17  C6  OHN d          40.510  12.342  -0.735  0.00  0.00     0.000 C 
BRANCH  17  18
ATOM     18  C5  OHN d          39.961  11.706   0.532  0.00  0.00     0.000 C 
BRANCH  18  19
ATOM     19  C4  OHN d          40.820  10.525   0.926  0.00  0.00     0.000 C 
BRANCH  19  20
ATOM     20  C3  OHN d          41.181  10.615   2.396  0.00  0.00    -0.000 C 
BRANCH  20  21
ATOM     21  C2  OHN d          39.918  10.658   3.224  0.00  0.00    -0.005 C 
ATOM     22  C1  OHN d          40.016  11.858   4.126  0.00  0.00     0.005 C 
ENDBRANCH  20  21
ENDBRANCH  19  20
ENDBRANCH  18  19
ENDBRANCH  17  18
ENDBRANCH  16  17
ENDBRANCH  15  16
ENDBRANCH  14  15
ENDBRANCH   1  14
TORSDOF 11
ENDMDL
MODEL 11
REMARK VINA RESULT:      -7.2      2.509      8.244
REMARK  11 active torsions:
REMARK  status: ('A' for Active; 'I' for Inactive)
REMARK    1  A    between atoms: C3_3  and  C2_2 
REMARK    2  A    between atoms: C4_4  and  C3_3 
REMARK    3  A    between atoms: C5_5  and  C4_4 
REMARK    4  A    between atoms: C6_6  and  C5_5 
REMARK    5  A    between atoms: C7_7  and  C6_6 
REMARK    6  A    between atoms: C8_8  and  C7_7 
REMARK    7  A    between atoms: C9_9  and  C8_8 
REMARK    8  A    between atoms: C10_10  and  C9_9 
REMARK    9  A    between atoms: C11_12  and  C10_10 
REMARK   10  A    between atoms: C11_12  and  C12_13 
REMARK       I    between atoms: C12_13  and  N1_15 
REMARK   11  A    between atoms: C13_16  and  N1_15 
ROOT
ATOM      1  C10 OHN d          40.006  17.668  -2.226  0.00  0.00     0.135 C 
ATOM      2  O1  OHN d          39.800  18.846  -2.462  0.00  0.00    -0.297 OA
ENDROOT
BRANCH   1   3
ATOM      3  C11 OHN d          40.567  16.750  -3.261  0.00  0.00     0.181 C 
BRANCH   3   4
ATOM      4  C12 OHN d          40.160  15.327  -2.977  0.00  0.00     0.225 C 
ATOM      5  N1  OHN d          40.844  14.623  -2.085  0.00  0.00    -0.347 N 
ATOM      6  H19 OHN d          41.647  15.005  -1.606  0.00  0.00     0.163 HD
ATOM      7  O2  OHN d          39.217  14.879  -3.585  0.00  0.00    -0.273 OA
BRANCH   5   8
ATOM      8  C13 OHN d          40.379  13.288  -1.839  0.00  0.00     0.186 C 
ATOM      9  C14 OHN d          41.456  12.307  -1.382  0.00  0.00     0.062 C 
ATOM     10  C15 OHN d          40.837  11.417  -0.291  0.00  0.00     0.181 C 
ATOM     11  O4  OHN d          39.712  12.134   0.181  0.00  0.00    -0.320 OA
ATOM     12  C16 OHN d          39.432  13.216  -0.703  0.00  0.00     0.281 C 
ATOM     13  O3  OHN d          38.511  13.970  -0.540  0.00  0.00    -0.263 OA
ENDBRANCH   5   8
ENDBRANCH   3   4
ENDBRANCH   1   3
BRANCH   1  14
ATOM     14  C9  OHN d          39.644  17.088  -0.897  0.00  0.00     0.079 C 
BRANCH  14  15
ATOM     15  C8  OHN d          38.350  17.652  -0.361  0.00  0.00     0.007 C 
BRANCH  15  16
ATOM     16  C7  OHN d          38.760  18.472   0.852  0.00  0.00     0.000 C 
BRANCH  16  17
ATOM     17  C6  OHN d          37.808  19.658   1.034  0.00  0.00     0.000 C 
BRANCH  17  18
ATOM     18  C5  OHN d          38.062  20.657  -0.084  0.00  0.00     0.000 C 
BRANCH  18  19
ATOM     19  C4  OHN d          39.444  21.253   0.067  0.00  0.00     0.000 C 
BRANCH  19  20
ATOM     20  C3  OHN d          39.430  22.328   1.136  0.00  0.00    -0.000 C 
BRANCH  20  21
ATOM     21  C2  OHN d          39.741  23.668   0.510  0.00  0.00    -0.005 C 
ATOM     22  C1  OHN d          40.484  23.400  -0.770  0.00  0.00     0.005 C 
ENDBRANCH  20  21
ENDBRANCH  19  20
ENDBRANCH  18  19
ENDBRANCH  17  18
ENDBRANCH  16  17
ENDBRANCH  15  16
ENDBRANCH  14  15
ENDBRANCH   1  14
TORSDOF 11
ENDMDL
