MODEL 1
REMARK VINA RESULT:      -7.3      0.000      0.000
REMARK  11 active torsions:
REMARK  status: ('A' for Active; 'I' for Inactive)
REMARK    1  A    between atoms: C3_3  and  C2_2 
REMARK    2  A    between atoms: C4_4  and  C3_3 
REMARK    3  A    between atoms: C5_5  and  C4_4 
REMARK    4  A    between atoms: C6_6  and  C5_5 
REMARK    5  A    between atoms: C7_7  and  C6_6 
REMARK    6  A    between atoms: C8_8  and  C7_7 
REMARK    7  A    between atoms: C9_9  and  C8_8 
REMARK    8  A    between atoms: C10_10  and  C9_9 
REMARK    9  A    between atoms: C11_12  and  C10_10 
REMARK   10  A    between atoms: C11_12  and  C12_13 
REMARK       I    between atoms: C12_13  and  N1_15 
REMARK   11  A    between atoms: C13_16  and  N1_15 
ROOT
ATOM      1  C10 OHN d          39.776  16.825  -1.574  0.00  0.00     0.135 C 
ATOM      2  O1  OHN d          39.532  17.107  -0.413  0.00  0.00    -0.297 OA
ENDROOT
BRANCH   1   3
ATOM      3  C11 OHN d          39.737  15.415  -2.061  0.00  0.00     0.181 C 
BRANCH   3   4
ATOM      4  C12 OHN d          40.614  14.538  -1.206  0.00  0.00     0.225 C 
ATOM      5  N1  OHN d          40.056  13.597  -0.456  0.00  0.00    -0.347 N 
ATOM      6  H19 OHN d          39.056  13.465  -0.423  0.00  0.00     0.163 HD
ATOM      7  O2  OHN d          41.806  14.734  -1.234  0.00  0.00    -0.273 OA
BRANCH   5   8
ATOM      8  C13 OHN d          40.954  12.777   0.305  0.00  0.00     0.186 C 
ATOM      9  C14 OHN d          40.427  12.345   1.672  0.00  0.00     0.062 C 
ATOM     10  C15 OHN d          40.850  10.882   1.889  0.00  0.00     0.181 C 
ATOM     11  O4  OHN d          41.134  10.381   0.596  0.00  0.00    -0.320 OA
ATOM     12  C16 OHN d          41.201  11.462  -0.329  0.00  0.00     0.281 C 
ATOM     13  O3  OHN d          41.449  11.309  -1.495  0.00  0.00    -0.263 OA
ENDBRANCH   5   8
ENDBRANCH   3   4
ENDBRANCH   1   3
BRANCH   1  14
ATOM     14  C9  OHN d          40.185  17.889  -2.540  0.00  0.00     0.079 C 
BRANCH  14  15
ATOM     15  C8  OHN d          40.567  17.322  -3.886  0.00  0.00     0.007 C 
BRANCH  15  16
ATOM     16  C7  OHN d          40.935  18.535  -4.726  0.00  0.00     0.000 C 
BRANCH  16  17
ATOM     17  C6  OHN d          41.060  18.137  -6.200  0.00  0.00     0.000 C 
BRANCH  17  18
ATOM     18  C5  OHN d          42.032  19.091  -6.877  0.00  0.00     0.000 C 
BRANCH  18  19
ATOM     19  C4  OHN d          43.013  18.308  -7.721  0.00  0.00     0.000 C 
BRANCH  19  20
ATOM     20  C3  OHN d          42.264  17.366  -8.644  0.00  0.00    -0.000 C 
BRANCH  20  21
ATOM     21  C2  OHN d          43.236  16.721  -9.605  0.00  0.00    -0.005 C 
ATOM     22  C1  OHN d          42.694  15.359  -9.942  0.00  0.00     0.005 C 
ENDBRANCH  20  21
ENDBRANCH  19  20
ENDBRANCH  18  19
ENDBRANCH  17  18
ENDBRANCH  16  17
ENDBRANCH  15  16
ENDBRANCH  14  15
ENDBRANCH   1  14
TORSDOF 11
ENDMDL
MODEL 2
REMARK VINA RESULT:      -6.5      2.666      5.057
REMARK  11 active torsions:
REMARK  status: ('A' for Active; 'I' for Inactive)
REMARK    1  A    between atoms: C3_3  and  C2_2 
REMARK    2  A    between atoms: C4_4  and  C3_3 
REMARK    3  A    between atoms: C5_5  and  C4_4 
REMARK    4  A    between atoms: C6_6  and  C5_5 
REMARK    5  A    between atoms: C7_7  and  C6_6 
REMARK    6  A    between atoms: C8_8  and  C7_7 
REMARK    7  A    between atoms: C9_9  and  C8_8 
REMARK    8  A    between atoms: C10_10  and  C9_9 
REMARK    9  A    between atoms: C11_12  and  C10_10 
REMARK   10  A    between atoms: C11_12  and  C12_13 
REMARK       I    between atoms: C12_13  and  N1_15 
REMARK   11  A    between atoms: C13_16  and  N1_15 
ROOT
ATOM      1  C10 OHN d          41.006  15.455  -2.377  0.00  0.00     0.135 C 
ATOM      2  O1  OHN d          42.127  15.000  -2.522  0.00  0.00    -0.297 OA
ENDROOT
BRANCH   1   3
ATOM      3  C11 OHN d          40.263  15.310  -1.090  0.00  0.00     0.181 C 
BRANCH   3   4
ATOM      4  C12 OHN d          39.309  16.460  -0.901  0.00  0.00     0.225 C 
ATOM      5  N1  OHN d          39.792  17.666  -0.629  0.00  0.00    -0.347 N 
ATOM      6  H19 OHN d          40.782  17.831  -0.521  0.00  0.00     0.163 HD
ATOM      7  O2  OHN d          38.126  16.234  -1.003  0.00  0.00    -0.273 OA
BRANCH   5   8
ATOM      8  C13 OHN d          38.828  18.720  -0.498  0.00  0.00     0.186 C 
ATOM      9  C14 OHN d          38.384  19.010   0.933  0.00  0.00     0.062 C 
ATOM     10  C15 OHN d          38.264  20.537   1.080  0.00  0.00     0.181 C 
ATOM     11  O4  OHN d          39.038  21.074   0.023  0.00  0.00    -0.320 OA
ATOM     12  C16 OHN d          39.369  20.039  -0.898  0.00  0.00     0.281 C 
ATOM     13  O3  OHN d          40.006  20.234  -1.898  0.00  0.00    -0.263 OA
ENDBRANCH   5   8
ENDBRANCH   3   4
ENDBRANCH   1   3
BRANCH   1  14
ATOM     14  C9  OHN d          40.309  16.126  -3.516  0.00  0.00     0.079 C 
BRANCH  14  15
ATOM     15  C8  OHN d          40.932  17.457  -3.862  0.00  0.00     0.007 C 
BRANCH  15  16
ATOM     16  C7  OHN d          40.527  17.709  -5.306  0.00  0.00     0.000 C 
BRANCH  16  17
ATOM     17  C6  OHN d          41.426  18.784  -5.926  0.00  0.00     0.000 C 
BRANCH  17  18
ATOM     18  C5  OHN d          41.648  18.441  -7.391  0.00  0.00     0.000 C 
BRANCH  18  19
ATOM     19  C4  OHN d          43.118  18.186  -7.639  0.00  0.00     0.000 C 
BRANCH  19  20
ATOM     20  C3  OHN d          43.297  17.403  -8.926  0.00  0.00    -0.000 C 
BRANCH  20  21
ATOM     21  C2  OHN d          42.113  16.485  -9.127  0.00  0.00    -0.005 C 
ATOM     22  C1  OHN d          42.513  15.458 -10.150  0.00  0.00     0.005 C 
ENDBRANCH  20  21
ENDBRANCH  19  20
ENDBRANCH  18  19
ENDBRANCH  17  18
ENDBRANCH  16  17
ENDBRANCH  15  16
ENDBRANCH  14  15
ENDBRANCH   1  14
TORSDOF 11
ENDMDL
MODEL 3
REMARK VINA RESULT:      -6.4      1.466      2.738
REMARK  11 active torsions:
REMARK  status: ('A' for Active; 'I' for Inactive)
REMARK    1  A    between atoms: C3_3  and  C2_2 
REMARK    2  A    between atoms: C4_4  and  C3_3 
REMARK    3  A    between atoms: C5_5  and  C4_4 
REMARK    4  A    between atoms: C6_6  and  C5_5 
REMARK    5  A    between atoms: C7_7  and  C6_6 
REMARK    6  A    between atoms: C8_8  and  C7_7 
REMARK    7  A    between atoms: C9_9  and  C8_8 
REMARK    8  A    between atoms: C10_10  and  C9_9 
REMARK    9  A    between atoms: C11_12  and  C10_10 
REMARK   10  A    between atoms: C11_12  and  C12_13 
REMARK       I    between atoms: C12_13  and  N1_15 
REMARK   11  A    between atoms: C13_16  and  N1_15 
ROOT
ATOM      1  C10 OHN d          40.370  17.602  -3.743  0.00  0.00     0.135 C 
ATOM      2  O1  OHN d          39.984  16.511  -4.126  0.00  0.00    -0.297 OA
ENDROOT
BRANCH   1   3
ATOM      3  C11 OHN d          40.032  18.118  -2.384  0.00  0.00     0.181 C 
BRANCH   3   4
ATOM      4  C12 OHN d          39.761  16.976  -1.440  0.00  0.00     0.225 C 
ATOM      5  N1  OHN d          40.429  15.840  -1.589  0.00  0.00    -0.347 N 
ATOM      6  H19 OHN d          41.099  15.709  -2.332  0.00  0.00     0.163 HD
ATOM      7  O2  OHN d          38.931  17.142  -0.578  0.00  0.00    -0.273 OA
BRANCH   5   8
ATOM      8  C13 OHN d          40.146  14.808  -0.633  0.00  0.00     0.186 C 
ATOM      9  C14 OHN d          38.911  13.966  -0.944  0.00  0.00     0.062 C 
ATOM     10  C15 OHN d          39.247  12.506  -0.595  0.00  0.00     0.181 C 
ATOM     11  O4  OHN d          40.662  12.444  -0.576  0.00  0.00    -0.320 OA
ATOM     12  C16 OHN d          41.195  13.765  -0.594  0.00  0.00     0.281 C 
ATOM     13  O3  OHN d          42.375  13.992  -0.563  0.00  0.00    -0.263 OA
ENDBRANCH   5   8
ENDBRANCH   3   4
ENDBRANCH   1   3
BRANCH   1  14
ATOM     14  C9  OHN d          41.151  18.491  -4.656  0.00  0.00     0.079 C 
BRANCH  14  15
ATOM     15  C8  OHN d          40.995  18.100  -6.106  0.00  0.00     0.007 C 
BRANCH  15  16
ATOM     16  C7  OHN d          41.862  19.090  -6.868  0.00  0.00     0.000 C 
BRANCH  16  17
ATOM     17  C6  OHN d          42.935  18.344  -7.668  0.00  0.00     0.000 C 
BRANCH  17  18
ATOM     18  C5  OHN d          42.243  17.419  -8.658  0.00  0.00     0.000 C 
BRANCH  18  19
ATOM     19  C4  OHN d          43.270  16.783  -9.568  0.00  0.00     0.000 C 
BRANCH  19  20
ATOM     20  C3  OHN d          42.752  15.455 -10.084  0.00  0.00    -0.000 C 
BRANCH  20  21
ATOM     21  C2  OHN d          43.181  15.270 -11.522  0.00  0.00    -0.005 C 
ATOM     22  C1  OHN d          43.870  16.536 -11.949  0.00  0.00     0.005 C 
ENDBRANCH  20  21
ENDBRANCH  19  20
ENDBRANCH  18  19
ENDBRANCH  17  18
ENDBRANCH  16  17
ENDBRANCH  15  16
ENDBRANCH  14  15
ENDBRANCH   1  14
TORSDOF 11
ENDMDL
MODEL 4
REMARK VINA RESULT:      -6.2      1.339      1.642
REMARK  11 active torsions:
REMARK  status: ('A' for Active; 'I' for Inactive)
REMARK    1  A    between atoms: C3_3  and  C2_2 
REMARK    2  A    between atoms: C4_4  and  C3_3 
REMARK    3  A    between atoms: C5_5  and  C4_4 
REMARK    4  A    between atoms: C6_6  and  C5_5 
REMARK    5  A    between atoms: C7_7  and  C6_6 
REMARK    6  A    between atoms: C8_8  and  C7_7 
REMARK    7  A    between atoms: C9_9  and  C8_8 
REMARK    8  A    between atoms: C10_10  and  C9_9 
REMARK    9  A    between atoms: C11_12  and  C10_10 
REMARK   10  A    between atoms: C11_12  and  C12_13 
REMARK       I    between atoms: C12_13  and  N1_15 
REMARK   11  A    between atoms: C13_16  and  N1_15 
ROOT
ATOM      1  C10 OHN d          40.355  15.541  -3.104  0.00  0.00     0.135 C 
ATOM      2  O1  OHN d          41.395  15.373  -2.492  0.00  0.00    -0.297 OA
ENDROOT
BRANCH   1   3
ATOM      3  C11 OHN d          39.203  14.603  -2.961  0.00  0.00     0.181 C 
BRANCH   3   4
ATOM      4  C12 OHN d          39.152  14.042  -1.564  0.00  0.00     0.225 C 
ATOM      5  N1  OHN d          40.061  13.151  -1.190  0.00  0.00    -0.347 N 
ATOM      6  H19 OHN d          40.773  12.819  -1.823  0.00  0.00     0.163 HD
ATOM      7  O2  OHN d          38.271  14.429  -0.833  0.00  0.00    -0.273 OA
BRANCH   5   8
ATOM      8  C13 OHN d          39.974  12.687   0.165  0.00  0.00     0.186 C 
ATOM      9  C14 OHN d          39.313  11.321   0.334  0.00  0.00     0.062 C 
ATOM     10  C15 OHN d          40.102  10.556   1.411  0.00  0.00     0.181 C 
ATOM     11  O4  OHN d          41.361  11.201   1.478  0.00  0.00    -0.320 OA
ATOM     12  C16 OHN d          41.302  12.434   0.767  0.00  0.00     0.281 C 
ATOM     13  O3  OHN d          42.236  13.186   0.687  0.00  0.00    -0.263 OA
ENDBRANCH   5   8
ENDBRANCH   3   4
ENDBRANCH   1   3
BRANCH   1  14
ATOM     14  C9  OHN d          40.222  16.671  -4.074  0.00  0.00     0.079 C 
BRANCH  14  15
ATOM     15  C8  OHN d          40.395  18.016  -3.410  0.00  0.00     0.007 C 
BRANCH  15  16
ATOM     16  C7  OHN d          40.995  18.904  -4.489  0.00  0.00     0.000 C 
BRANCH  16  17
ATOM     17  C6  OHN d          41.093  18.135  -5.810  0.00  0.00     0.000 C 
BRANCH  17  18
ATOM     18  C5  OHN d          41.787  19.020  -6.834  0.00  0.00     0.000 C 
BRANCH  18  19
ATOM     19  C4  OHN d          42.829  18.218  -7.581  0.00  0.00     0.000 C 
BRANCH  19  20
ATOM     20  C3  OHN d          42.160  17.357  -8.636  0.00  0.00    -0.000 C 
BRANCH  20  21
ATOM     21  C2  OHN d          43.204  16.829  -9.593  0.00  0.00    -0.005 C 
ATOM     22  C1  OHN d          42.982  15.348  -9.724  0.00  0.00     0.005 C 
ENDBRANCH  20  21
ENDBRANCH  19  20
ENDBRANCH  18  19
ENDBRANCH  17  18
ENDBRANCH  16  17
ENDBRANCH  15  16
ENDBRANCH  14  15
ENDBRANCH   1  14
TORSDOF 11
ENDMDL
MODEL 5
REMARK VINA RESULT:      -5.7      5.518      9.984
REMARK  11 active torsions:
REMARK  status: ('A' for Active; 'I' for Inactive)
REMARK    1  A    between atoms: C3_3  and  C2_2 
REMARK    2  A    between atoms: C4_4  and  C3_3 
REMARK    3  A    between atoms: C5_5  and  C4_4 
REMARK    4  A    between atoms: C6_6  and  C5_5 
REMARK    5  A    between atoms: C7_7  and  C6_6 
REMARK    6  A    between atoms: C8_8  and  C7_7 
REMARK    7  A    between atoms: C9_9  and  C8_8 
REMARK    8  A    between atoms: C10_10  and  C9_9 
REMARK    9  A    between atoms: C11_12  and  C10_10 
REMARK   10  A    between atoms: C11_12  and  C12_13 
REMARK       I    between atoms: C12_13  and  N1_15 
REMARK   11  A    between atoms: C13_16  and  N1_15 
ROOT
ATOM      1  C10 OHN d          42.445  17.763  -8.135  0.00  0.00     0.135 C 
ATOM      2  O1  OHN d          43.646  17.964  -8.075  0.00  0.00    -0.297 OA
ENDROOT
BRANCH   1   3
ATOM      3  C11 OHN d          41.879  16.647  -8.950  0.00  0.00     0.181 C 
BRANCH   3   4
ATOM      4  C12 OHN d          42.941  16.053  -9.838  0.00  0.00     0.225 C 
ATOM      5  N1  OHN d          43.341  16.727 -10.909  0.00  0.00    -0.347 N 
ATOM      6  H19 OHN d          42.937  17.617 -11.160  0.00  0.00     0.163 HD
ATOM      7  O2  OHN d          43.387  14.972  -9.538  0.00  0.00    -0.273 OA
BRANCH   5   8
ATOM      8  C13 OHN d          44.380  16.118 -11.689  0.00  0.00     0.186 C 
ATOM      9  C14 OHN d          43.889  15.209 -12.814  0.00  0.00     0.062 C 
ATOM     10  C15 OHN d          44.796  15.452 -14.032  0.00  0.00     0.181 C 
ATOM     11  O4  OHN d          45.401  16.711 -13.802  0.00  0.00    -0.320 OA
ATOM     12  C16 OHN d          45.173  17.108 -12.452  0.00  0.00     0.281 C 
ATOM     13  O3  OHN d          45.600  18.132 -11.993  0.00  0.00    -0.263 OA
ENDBRANCH   5   8
ENDBRANCH   3   4
ENDBRANCH   1   3
BRANCH   1  14
ATOM     14  C9  OHN d          41.490  18.674  -7.435  0.00  0.00     0.079 C 
BRANCH  14  15
ATOM     15  C8  OHN d          41.695  18.677  -5.939  0.00  0.00     0.007 C 
BRANCH  15  16
ATOM     16  C7  OHN d          40.525  17.878  -5.388  0.00  0.00     0.000 C 
BRANCH  16  17
ATOM     17  C6  OHN d          40.549  17.896  -3.856  0.00  0.00     0.000 C 
BRANCH  17  18
ATOM     18  C5  OHN d          40.605  16.461  -3.356  0.00  0.00     0.000 C 
BRANCH  18  19
ATOM     19  C4  OHN d          40.057  16.388  -1.948  0.00  0.00     0.000 C 
BRANCH  19  20
ATOM     20  C3  OHN d          40.659  15.203  -1.219  0.00  0.00    -0.000 C 
BRANCH  20  21
ATOM     21  C2  OHN d          41.721  14.564  -2.085  0.00  0.00    -0.005 C 
ATOM     22  C1  OHN d          41.857  13.133  -1.642  0.00  0.00     0.005 C 
ENDBRANCH  20  21
ENDBRANCH  19  20
ENDBRANCH  18  19
ENDBRANCH  17  18
ENDBRANCH  16  17
ENDBRANCH  15  16
ENDBRANCH  14  15
ENDBRANCH   1  14
TORSDOF 11
ENDMDL
MODEL 6
REMARK VINA RESULT:      -5.6      5.017      8.859
REMARK  11 active torsions:
REMARK  status: ('A' for Active; 'I' for Inactive)
REMARK    1  A    between atoms: C3_3  and  C2_2 
REMARK    2  A    between atoms: C4_4  and  C3_3 
REMARK    3  A    between atoms: C5_5  and  C4_4 
REMARK    4  A    between atoms: C6_6  and  C5_5 
REMARK    5  A    between atoms: C7_7  and  C6_6 
REMARK    6  A    between atoms: C8_8  and  C7_7 
REMARK    7  A    between atoms: C9_9  and  C8_8 
REMARK    8  A    between atoms: C10_10  and  C9_9 
REMARK    9  A    between atoms: C11_12  and  C10_10 
REMARK   10  A    between atoms: C11_12  and  C12_13 
REMARK       I    between atoms: C12_13  and  N1_15 
REMARK   11  A    between atoms: C13_16  and  N1_15 
ROOT
ATOM      1  C10 OHN d          42.422  17.939  -7.949  0.00  0.00     0.135 C 
ATOM      2  O1  OHN d          43.638  18.002  -7.917  0.00  0.00    -0.297 OA
ENDROOT
BRANCH   1   3
ATOM      3  C11 OHN d          41.714  16.892  -8.744  0.00  0.00     0.181 C 
BRANCH   3   4
ATOM      4  C12 OHN d          42.683  16.167  -9.640  0.00  0.00     0.225 C 
ATOM      5  N1  OHN d          42.662  14.842  -9.681  0.00  0.00    -0.347 N 
ATOM      6  H19 OHN d          42.028  14.301  -9.110  0.00  0.00     0.163 HD
ATOM      7  O2  OHN d          43.455  16.832 -10.290  0.00  0.00    -0.273 OA
BRANCH   5   8
ATOM      8  C13 OHN d          43.588  14.220 -10.583  0.00  0.00     0.186 C 
ATOM      9  C14 OHN d          44.305  12.994 -10.022  0.00  0.00     0.062 C 
ATOM     10  C15 OHN d          44.391  11.952 -11.150  0.00  0.00     0.181 C 
ATOM     11  O4  OHN d          43.394  12.329 -12.082  0.00  0.00    -0.320 OA
ATOM     12  C16 OHN d          42.923  13.637 -11.770  0.00  0.00     0.281 C 
ATOM     13  O3  OHN d          42.086  14.201 -12.422  0.00  0.00    -0.263 OA
ENDBRANCH   5   8
ENDBRANCH   3   4
ENDBRANCH   1   3
BRANCH   1  14
ATOM     14  C9  OHN d          41.592  18.955  -7.232  0.00  0.00     0.079 C 
BRANCH  14  15
ATOM     15  C8  OHN d          41.692  18.819  -5.732  0.00  0.00     0.007 C 
BRANCH  15  16
ATOM     16  C7  OHN d          40.573  17.860  -5.356  0.00  0.00     0.000 C 
BRANCH  16  17
ATOM     17  C6  OHN d          40.359  17.870  -3.838  0.00  0.00     0.000 C 
BRANCH  17  18
ATOM     18  C5  OHN d          40.654  16.478  -3.300  0.00  0.00     0.000 C 
BRANCH  18  19
ATOM     19  C4  OHN d          39.975  16.294  -1.960  0.00  0.00     0.000 C 
BRANCH  19  20
ATOM     20  C3  OHN d          40.666  15.194  -1.178  0.00  0.00    -0.000 C 
BRANCH  20  21
ATOM     21  C2  OHN d          41.515  14.365  -2.114  0.00  0.00    -0.005 C 
ATOM     22  C1  OHN d          41.908  13.117  -1.373  0.00  0.00     0.005 C 
ENDBRANCH  20  21
ENDBRANCH  19  20
ENDBRANCH  18  19
ENDBRANCH  17  18
ENDBRANCH  16  17
ENDBRANCH  15  16
ENDBRANCH  14  15
ENDBRANCH   1  14
TORSDOF 11
ENDMDL
MODEL 7
REMARK VINA RESULT:      -5.6      2.222      4.248
REMARK  11 active torsions:
REMARK  status: ('A' for Active; 'I' for Inactive)
REMARK    1  A    between atoms: C3_3  and  C2_2 
REMARK    2  A    between atoms: C4_4  and  C3_3 
REMARK    3  A    between atoms: C5_5  and  C4_4 
REMARK    4  A    between atoms: C6_6  and  C5_5 
REMARK    5  A    between atoms: C7_7  and  C6_6 
REMARK    6  A    between atoms: C8_8  and  C7_7 
REMARK    7  A    between atoms: C9_9  and  C8_8 
REMARK    8  A    between atoms: C10_10  and  C9_9 
REMARK    9  A    between atoms: C11_12  and  C10_10 
REMARK   10  A    between atoms: C11_12  and  C12_13 
REMARK       I    between atoms: C12_13  and  N1_15 
REMARK   11  A    between atoms: C13_16  and  N1_15 
ROOT
ATOM      1  C10 OHN d          40.714  18.089  -5.585  0.00  0.00     0.135 C 
ATOM      2  O1  OHN d          39.993  17.123  -5.770  0.00  0.00    -0.297 OA
ENDROOT
BRANCH   1   3
ATOM      3  C11 OHN d          41.023  18.584  -4.211  0.00  0.00     0.181 C 
BRANCH   3   4
ATOM      4  C12 OHN d          40.395  17.688  -3.176  0.00  0.00     0.225 C 
ATOM      5  N1  OHN d          40.705  16.398  -3.161  0.00  0.00    -0.347 N 
ATOM      6  H19 OHN d          41.334  15.993  -3.839  0.00  0.00     0.163 HD
ATOM      7  O2  OHN d          39.620  18.186  -2.395  0.00  0.00    -0.273 OA
BRANCH   5   8
ATOM      8  C13 OHN d          40.098  15.611  -2.127  0.00  0.00     0.186 C 
ATOM      9  C14 OHN d          39.031  14.631  -2.608  0.00  0.00     0.062 C 
ATOM     10  C15 OHN d          39.206  13.328  -1.809  0.00  0.00     0.181 C 
ATOM     11  O4  OHN d          40.528  13.376  -1.304  0.00  0.00    -0.320 OA
ATOM     12  C16 OHN d          41.055  14.689  -1.476  0.00  0.00     0.281 C 
ATOM     13  O3  OHN d          42.157  15.002  -1.112  0.00  0.00    -0.263 OA
ENDBRANCH   5   8
ENDBRANCH   3   4
ENDBRANCH   1   3
BRANCH   1  14
ATOM     14  C9  OHN d          41.268  18.852  -6.746  0.00  0.00     0.079 C 
BRANCH  14  15
ATOM     15  C8  OHN d          42.537  18.234  -7.282  0.00  0.00     0.007 C 
BRANCH  15  16
ATOM     16  C7  OHN d          42.095  17.446  -8.505  0.00  0.00     0.000 C 
BRANCH  16  17
ATOM     17  C6  OHN d          43.314  17.051  -9.345  0.00  0.00     0.000 C 
BRANCH  17  18
ATOM     18  C5  OHN d          43.012  15.734 -10.044  0.00  0.00     0.000 C 
BRANCH  18  19
ATOM     19  C4  OHN d          43.684  15.709 -11.399  0.00  0.00     0.000 C 
BRANCH  19  20
ATOM     20  C3  OHN d          44.178  17.097 -11.758  0.00  0.00    -0.000 C 
BRANCH  20  21
ATOM     21  C2  OHN d          45.444  16.987 -12.575  0.00  0.00    -0.005 C 
ATOM     22  C1  OHN d          46.169  18.299 -12.455  0.00  0.00     0.005 C 
ENDBRANCH  20  21
ENDBRANCH  19  20
ENDBRANCH  18  19
ENDBRANCH  17  18
ENDBRANCH  16  17
ENDBRANCH  15  16
ENDBRANCH  14  15
ENDBRANCH   1  14
TORSDOF 11
ENDMDL
MODEL 8
REMARK VINA RESULT:      -5.5      2.636      5.567
REMARK  11 active torsions:
REMARK  status: ('A' for Active; 'I' for Inactive)
REMARK    1  A    between atoms: C3_3  and  C2_2 
REMARK    2  A    between atoms: C4_4  and  C3_3 
REMARK    3  A    between atoms: C5_5  and  C4_4 
REMARK    4  A    between atoms: C6_6  and  C5_5 
REMARK    5  A    between atoms: C7_7  and  C6_6 
REMARK    6  A    between atoms: C8_8  and  C7_7 
REMARK    7  A    between atoms: C9_9  and  C8_8 
REMARK    8  A    between atoms: C10_10  and  C9_9 
REMARK    9  A    between atoms: C11_12  and  C10_10 
REMARK   10  A    between atoms: C11_12  and  C12_13 
REMARK       I    between atoms: C12_13  and  N1_15 
REMARK   11  A    between atoms: C13_16  and  N1_15 
ROOT
ATOM      1  C10 OHN d          38.715  14.156  -1.408  0.00  0.00     0.135 C 
ATOM      2  O1  OHN d          38.997  13.189  -0.722  0.00  0.00    -0.297 OA
ENDROOT
BRANCH   1   3
ATOM      3  C11 OHN d          37.818  15.238  -0.903  0.00  0.00     0.181 C 
BRANCH   3   4
ATOM      4  C12 OHN d          38.624  16.448  -0.511  0.00  0.00     0.225 C 
ATOM      5  N1  OHN d          38.059  17.647  -0.559  0.00  0.00    -0.347 N 
ATOM      6  H19 OHN d          37.108  17.776  -0.875  0.00  0.00     0.163 HD
ATOM      7  O2  OHN d          39.770  16.276  -0.168  0.00  0.00    -0.273 OA
BRANCH   5   8
ATOM      8  C13 OHN d          38.873  18.750  -0.138  0.00  0.00     0.186 C 
ATOM      9  C14 OHN d          39.541  19.525  -1.271  0.00  0.00     0.062 C 
ATOM     10  C15 OHN d          39.474  21.019  -0.912  0.00  0.00     0.181 C 
ATOM     11  O4  OHN d          38.442  21.125   0.052  0.00  0.00    -0.320 OA
ATOM     12  C16 OHN d          38.087  19.823   0.511  0.00  0.00     0.281 C 
ATOM     13  O3  OHN d          37.247  19.635   1.350  0.00  0.00    -0.263 OA
ENDBRANCH   5   8
ENDBRANCH   3   4
ENDBRANCH   1   3
BRANCH   1  14
ATOM     14  C9  OHN d          39.216  14.260  -2.812  0.00  0.00     0.079 C 
BRANCH  14  15
ATOM     15  C8  OHN d          40.486  15.071  -2.907  0.00  0.00     0.007 C 
BRANCH  15  16
ATOM     16  C7  OHN d          40.113  16.272  -3.762  0.00  0.00     0.000 C 
BRANCH  16  17
ATOM     17  C6  OHN d          41.056  17.443  -3.465  0.00  0.00     0.000 C 
BRANCH  17  18
ATOM     18  C5  OHN d          40.790  18.546  -4.477  0.00  0.00     0.000 C 
BRANCH  18  19
ATOM     19  C4  OHN d          40.882  17.987  -5.879  0.00  0.00     0.000 C 
BRANCH  19  20
ATOM     20  C3  OHN d          41.759  18.879  -6.736  0.00  0.00    -0.000 C 
BRANCH  20  21
ATOM     21  C2  OHN d          42.099  18.167  -8.025  0.00  0.00    -0.005 C 
ATOM     22  C1  OHN d          43.577  17.892  -8.007  0.00  0.00     0.005 C 
ENDBRANCH  20  21
ENDBRANCH  19  20
ENDBRANCH  18  19
ENDBRANCH  17  18
ENDBRANCH  16  17
ENDBRANCH  15  16
ENDBRANCH  14  15
ENDBRANCH   1  14
TORSDOF 11
ENDMDL
MODEL 9
REMARK VINA RESULT:      -5.5      8.352      9.669
REMARK  11 active torsions:
REMARK  status: ('A' for Active; 'I' for Inactive)
REMARK    1  A    between atoms: C3_3  and  C2_2 
REMARK    2  A    between atoms: C4_4  and  C3_3 
REMARK    3  A    between atoms: C5_5  and  C4_4 
REMARK    4  A    between atoms: C6_6  and  C5_5 
REMARK    5  A    between atoms: C7_7  and  C6_6 
REMARK    6  A    between atoms: C8_8  and  C7_7 
REMARK    7  A    between atoms: C9_9  and  C8_8 
REMARK    8  A    between atoms: C10_10  and  C9_9 
REMARK    9  A    between atoms: C11_12  and  C10_10 
REMARK   10  A    between atoms: C11_12  and  C12_13 
REMARK       I    between atoms: C12_13  and  N1_15 
REMARK   11  A    between atoms: C13_16  and  N1_15 
ROOT
ATOM      1  C10 OHN d          48.175  14.098  -4.695  0.00  0.00     0.135 C 
ATOM      2  O1  OHN d          48.376  15.016  -3.919  0.00  0.00    -0.297 OA
ENDROOT
BRANCH   1   3
ATOM      3  C11 OHN d          47.571  12.810  -4.244  0.00  0.00     0.181 C 
BRANCH   3   4
ATOM      4  C12 OHN d          48.648  11.826  -3.870  0.00  0.00     0.225 C 
ATOM      5  N1  OHN d          49.540  12.161  -2.947  0.00  0.00    -0.347 N 
ATOM      6  H19 OHN d          49.533  13.068  -2.503  0.00  0.00     0.163 HD
ATOM      7  O2  OHN d          48.659  10.759  -4.437  0.00  0.00    -0.273 OA
BRANCH   5   8
ATOM      8  C13 OHN d          50.515  11.162  -2.615  0.00  0.00     0.186 C 
ATOM      9  C14 OHN d          51.822  11.256  -3.399  0.00  0.00     0.062 C 
ATOM     10  C15 OHN d          52.970  10.955  -2.421  0.00  0.00     0.181 C 
ATOM     11  O4  OHN d          52.427  11.172  -1.131  0.00  0.00    -0.320 OA
ATOM     12  C16 OHN d          51.011  11.290  -1.226  0.00  0.00     0.281 C 
ATOM     13  O3  OHN d          50.305  11.459  -0.268  0.00  0.00    -0.263 OA
ENDBRANCH   5   8
ENDBRANCH   3   4
ENDBRANCH   1   3
BRANCH   1  14
ATOM     14  C9  OHN d          48.590  14.213  -6.127  0.00  0.00     0.079 C 
BRANCH  14  15
ATOM     15  C8  OHN d          50.084  14.092  -6.300  0.00  0.00     0.007 C 
BRANCH  15  16
ATOM     16  C7  OHN d          50.272  12.859  -7.171  0.00  0.00     0.000 C 
BRANCH  16  17
ATOM     17  C6  OHN d          48.941  12.463  -7.818  0.00  0.00     0.000 C 
BRANCH  17  18
ATOM     18  C5  OHN d          48.901  10.948  -7.950  0.00  0.00     0.000 C 
BRANCH  18  19
ATOM     19  C4  OHN d          47.465  10.483  -8.061  0.00  0.00     0.000 C 
BRANCH  19  20
ATOM     20  C3  OHN d          46.527  11.591  -7.624  0.00  0.00    -0.000 C 
BRANCH  20  21
ATOM     21  C2  OHN d          45.108  11.227  -7.994  0.00  0.00    -0.005 C 
ATOM     22  C1  OHN d          44.549  12.369  -8.798  0.00  0.00     0.005 C 
ENDBRANCH  20  21
ENDBRANCH  19  20
ENDBRANCH  18  19
ENDBRANCH  17  18
ENDBRANCH  16  17
ENDBRANCH  15  16
ENDBRANCH  14  15
ENDBRANCH   1  14
TORSDOF 11
ENDMDL
MODEL 10
REMARK VINA RESULT:      -5.4      9.546     10.571
REMARK  11 active torsions:
REMARK  status: ('A' for Active; 'I' for Inactive)
REMARK    1  A    between atoms: C3_3  and  C2_2 
REMARK    2  A    between atoms: C4_4  and  C3_3 
REMARK    3  A    between atoms: C5_5  and  C4_4 
REMARK    4  A    between atoms: C6_6  and  C5_5 
REMARK    5  A    between atoms: C7_7  and  C6_6 
REMARK    6  A    between atoms: C8_8  and  C7_7 
REMARK    7  A    between atoms: C9_9  and  C8_8 
REMARK    8  A    between atoms: C10_10  and  C9_9 
REMARK    9  A    between atoms: C11_12  and  C10_10 
REMARK   10  A    between atoms: C11_12  and  C12_13 
REMARK       I    between atoms: C12_13  and  N1_15 
REMARK   11  A    between atoms: C13_16  and  N1_15 
ROOT
ATOM      1  C10 OHN d          49.626  10.772  -4.183  0.00  0.00     0.135 C 
ATOM      2  O1  OHN d          49.217   9.820  -4.825  0.00  0.00    -0.297 OA
ENDROOT
BRANCH   1   3
ATOM      3  C11 OHN d          51.086  11.029  -4.009  0.00  0.00     0.181 C 
BRANCH   3   4
ATOM      4  C12 OHN d          51.520  10.671  -2.612  0.00  0.00     0.225 C 
ATOM      5  N1  OHN d          51.843  11.640  -1.765  0.00  0.00    -0.347 N 
ATOM      6  H19 OHN d          51.830  12.612  -2.037  0.00  0.00     0.163 HD
ATOM      7  O2  OHN d          51.561   9.500  -2.317  0.00  0.00    -0.273 OA
BRANCH   5   8
ATOM      8  C13 OHN d          52.212  11.228  -0.441  0.00  0.00     0.186 C 
ATOM      9  C14 OHN d          53.673  11.480  -0.074  0.00  0.00     0.062 C 
ATOM     10  C15 OHN d          53.706  11.964   1.385  0.00  0.00     0.181 C 
ATOM     11  O4  OHN d          52.394  12.426   1.654  0.00  0.00    -0.320 OA
ATOM     12  C16 OHN d          51.519  12.006   0.611  0.00  0.00     0.281 C 
ATOM     13  O3  OHN d          50.343  12.251   0.608  0.00  0.00    -0.263 OA
ENDBRANCH   5   8
ENDBRANCH   3   4
ENDBRANCH   1   3
BRANCH   1  14
ATOM     14  C9  OHN d          48.667  11.688  -3.493  0.00  0.00     0.079 C 
BRANCH  14  15
ATOM     15  C8  OHN d          47.699  12.331  -4.456  0.00  0.00     0.007 C 
BRANCH  15  16
ATOM     16  C7  OHN d          48.078  13.804  -4.458  0.00  0.00     0.000 C 
BRANCH  16  17
ATOM     17  C6  OHN d          48.485  14.242  -5.869  0.00  0.00     0.000 C 
BRANCH  17  18
ATOM     18  C5  OHN d          49.998  14.151  -5.985  0.00  0.00     0.000 C 
BRANCH  18  19
ATOM     19  C4  OHN d          50.370  13.129  -7.037  0.00  0.00     0.000 C 
BRANCH  19  20
ATOM     20  C3  OHN d          49.154  12.785  -7.876  0.00  0.00    -0.000 C 
BRANCH  20  21
ATOM     21  C2  OHN d          49.047  11.284  -8.018  0.00  0.00    -0.005 C 
ATOM     22  C1  OHN d          47.592  10.926  -7.898  0.00  0.00     0.005 C 
ENDBRANCH  20  21
ENDBRANCH  19  20
ENDBRANCH  18  19
ENDBRANCH  17  18
ENDBRANCH  16  17
ENDBRANCH  15  16
ENDBRANCH  14  15
ENDBRANCH   1  14
TORSDOF 11
ENDMDL
MODEL 11
REMARK VINA RESULT:      -5.4     10.405     11.541
REMARK  11 active torsions:
REMARK  status: ('A' for Active; 'I' for Inactive)
REMARK    1  A    between atoms: C3_3  and  C2_2 
REMARK    2  A    between atoms: C4_4  and  C3_3 
REMARK    3  A    between atoms: C5_5  and  C4_4 
REMARK    4  A    between atoms: C6_6  and  C5_5 
REMARK    5  A    between atoms: C7_7  and  C6_6 
REMARK    6  A    between atoms: C8_8  and  C7_7 
REMARK    7  A    between atoms: C9_9  and  C8_8 
REMARK    8  A    between atoms: C10_10  and  C9_9 
REMARK    9  A    between atoms: C11_12  and  C10_10 
REMARK   10  A    between atoms: C11_12  and  C12_13 
REMARK       I    between atoms: C12_13  and  N1_15 
REMARK   11  A    between atoms: C13_16  and  N1_15 
ROOT
ATOM      1  C10 OHN d          52.700  13.398  -4.810  0.00  0.00     0.135 C 
ATOM      2  O1  OHN d          53.704  13.911  -4.346  0.00  0.00    -0.297 OA
ENDROOT
BRANCH   1   3
ATOM      3  C11 OHN d          52.549  11.915  -4.897  0.00  0.00     0.181 C 
BRANCH   3   4
ATOM      4  C12 OHN d          52.817  11.280  -3.558  0.00  0.00     0.225 C 
ATOM      5  N1  OHN d          52.524  11.952  -2.452  0.00  0.00    -0.347 N 
ATOM      6  H19 OHN d          52.148  12.889  -2.481  0.00  0.00     0.163 HD
ATOM      7  O2  OHN d          53.298  10.172  -3.545  0.00  0.00    -0.273 OA
BRANCH   5   8
ATOM      8  C13 OHN d          52.772  11.272  -1.213  0.00  0.00     0.186 C 
ATOM      9  C14 OHN d          54.022  11.733  -0.467  0.00  0.00     0.062 C 
ATOM     10  C15 OHN d          53.678  11.772   1.032  0.00  0.00     0.181 C 
ATOM     11  O4  OHN d          52.264  11.827   1.088  0.00  0.00    -0.320 OA
ATOM     12  C16 OHN d          51.726  11.537  -0.199  0.00  0.00     0.281 C 
ATOM     13  O3  OHN d          50.546  11.499  -0.419  0.00  0.00    -0.263 OA
ENDBRANCH   5   8
ENDBRANCH   3   4
ENDBRANCH   1   3
BRANCH   1  14
ATOM     14  C9  OHN d          51.604  14.248  -5.368  0.00  0.00     0.079 C 
BRANCH  14  15
ATOM     15  C8  OHN d          50.878  13.570  -6.505  0.00  0.00     0.007 C 
BRANCH  15  16
ATOM     16  C7  OHN d          49.435  14.029  -6.369  0.00  0.00     0.000 C 
BRANCH  16  17
ATOM     17  C6  OHN d          49.164  14.499  -4.936  0.00  0.00     0.000 C 
BRANCH  17  18
ATOM     18  C5  OHN d          47.820  13.942  -4.491  0.00  0.00     0.000 C 
BRANCH  18  19
ATOM     19  C4  OHN d          47.888  12.432  -4.428  0.00  0.00     0.000 C 
BRANCH  19  20
ATOM     20  C3  OHN d          48.955  12.003  -3.439  0.00  0.00    -0.000 C 
BRANCH  20  21
ATOM     21  C2  OHN d          49.304  10.551  -3.671  0.00  0.00    -0.005 C 
ATOM     22  C1  OHN d          49.094  10.269  -5.133  0.00  0.00     0.005 C 
ENDBRANCH  20  21
ENDBRANCH  19  20
ENDBRANCH  18  19
ENDBRANCH  17  18
ENDBRANCH  16  17
ENDBRANCH  15  16
ENDBRANCH  14  15
ENDBRANCH   1  14
TORSDOF 11
ENDMDL
MODEL 12
REMARK VINA RESULT:      -5.3      9.495     10.732
REMARK  11 active torsions:
REMARK  status: ('A' for Active; 'I' for Inactive)
REMARK    1  A    between atoms: C3_3  and  C2_2 
REMARK    2  A    between atoms: C4_4  and  C3_3 
REMARK    3  A    between atoms: C5_5  and  C4_4 
REMARK    4  A    between atoms: C6_6  and  C5_5 
REMARK    5  A    between atoms: C7_7  and  C6_6 
REMARK    6  A    between atoms: C8_8  and  C7_7 
REMARK    7  A    between atoms: C9_9  and  C8_8 
REMARK    8  A    between atoms: C10_10  and  C9_9 
REMARK    9  A    between atoms: C11_12  and  C10_10 
REMARK   10  A    between atoms: C11_12  and  C12_13 
REMARK       I    between atoms: C12_13  and  N1_15 
REMARK   11  A    between atoms: C13_16  and  N1_15 
ROOT
ATOM      1  C10 OHN d          49.294  11.190  -3.873  0.00  0.00     0.135 C 
ATOM      2  O1  OHN d          48.822  11.756  -2.902  0.00  0.00    -0.297 OA
ENDROOT
BRANCH   1   3
ATOM      3  C11 OHN d          50.756  10.909  -3.980  0.00  0.00     0.181 C 
BRANCH   3   4
ATOM      4  C12 OHN d          51.333  10.600  -2.623  0.00  0.00     0.225 C 
ATOM      5  N1  OHN d          51.680  11.600  -1.823  0.00  0.00    -0.347 N 
ATOM      6  H19 OHN d          51.591  12.565  -2.106  0.00  0.00     0.163 HD
ATOM      7  O2  OHN d          51.462   9.439  -2.317  0.00  0.00    -0.273 OA
BRANCH   5   8
ATOM      8  C13 OHN d          52.188  11.233  -0.533  0.00  0.00     0.186 C 
ATOM      9  C14 OHN d          53.654  11.589  -0.296  0.00  0.00     0.062 C 
ATOM     10  C15 OHN d          53.778  12.094   1.152  0.00  0.00     0.181 C 
ATOM     11  O4  OHN d          52.466  12.469   1.529  0.00  0.00    -0.320 OA
ATOM     12  C16 OHN d          51.536  11.976   0.569  0.00  0.00     0.281 C 
ATOM     13  O3  OHN d          50.350  12.141   0.666  0.00  0.00    -0.263 OA
ENDBRANCH   5   8
ENDBRANCH   3   4
ENDBRANCH   1   3
BRANCH   1  14
ATOM     14  C9  OHN d          48.421  10.809  -5.025  0.00  0.00     0.079 C 
BRANCH  14  15
ATOM     15  C8  OHN d          49.189  10.092  -6.110  0.00  0.00     0.007 C 
BRANCH  15  16
ATOM     16  C7  OHN d          48.532  10.540  -7.407  0.00  0.00     0.000 C 
BRANCH  16  17
ATOM     17  C6  OHN d          48.349  12.061  -7.407  0.00  0.00     0.000 C 
BRANCH  17  18
ATOM     18  C5  OHN d          49.672  12.707  -7.787  0.00  0.00     0.000 C 
BRANCH  18  19
ATOM     19  C4  OHN d          50.030  13.773  -6.775  0.00  0.00     0.000 C 
BRANCH  19  20
ATOM     20  C3  OHN d          48.769  14.336  -6.149  0.00  0.00    -0.000 C 
BRANCH  20  21
ATOM     21  C2  OHN d          49.089  14.886  -4.778  0.00  0.00    -0.005 C 
ATOM     22  C1  OHN d          47.792  15.335  -4.164  0.00  0.00     0.005 C 
ENDBRANCH  20  21
ENDBRANCH  19  20
ENDBRANCH  18  19
ENDBRANCH  17  18
ENDBRANCH  16  17
ENDBRANCH  15  16
ENDBRANCH  14  15
ENDBRANCH   1  14
TORSDOF 11
ENDMDL
MODEL 13
REMARK VINA RESULT:      -5.3     10.003     12.437
REMARK  11 active torsions:
REMARK  status: ('A' for Active; 'I' for Inactive)
REMARK    1  A    between atoms: C3_3  and  C2_2 
REMARK    2  A    between atoms: C4_4  and  C3_3 
REMARK    3  A    between atoms: C5_5  and  C4_4 
REMARK    4  A    between atoms: C6_6  and  C5_5 
REMARK    5  A    between atoms: C7_7  and  C6_6 
REMARK    6  A    between atoms: C8_8  and  C7_7 
REMARK    7  A    between atoms: C9_9  and  C8_8 
REMARK    8  A    between atoms: C10_10  and  C9_9 
REMARK    9  A    between atoms: C11_12  and  C10_10 
REMARK   10  A    between atoms: C11_12  and  C12_13 
REMARK       I    between atoms: C12_13  and  N1_15 
REMARK   11  A    between atoms: C13_16  and  N1_15 
ROOT
ATOM      1  C10 OHN d          48.367  14.110  -4.785  0.00  0.00     0.135 C 
ATOM      2  O1  OHN d          48.368  15.064  -4.027  0.00  0.00    -0.297 OA
ENDROOT
BRANCH   1   3
ATOM      3  C11 OHN d          48.803  14.241  -6.207  0.00  0.00     0.181 C 
BRANCH   3   4
ATOM      4  C12 OHN d          50.292  14.041  -6.321  0.00  0.00     0.225 C 
ATOM      5  N1  OHN d          51.094  14.625  -5.440  0.00  0.00    -0.347 N 
ATOM      6  H19 OHN d          50.737  15.220  -4.707  0.00  0.00     0.163 HD
ATOM      7  O2  OHN d          50.700  13.352  -7.226  0.00  0.00    -0.273 OA
BRANCH   5   8
ATOM      8  C13 OHN d          52.496  14.362  -5.588  0.00  0.00     0.186 C 
ATOM      9  C14 OHN d          53.396  15.589  -5.463  0.00  0.00     0.062 C 
ATOM     10  C15 OHN d          54.644  15.168  -4.669  0.00  0.00     0.181 C 
ATOM     11  O4  OHN d          54.269  13.988  -3.983  0.00  0.00    -0.320 OA
ATOM     12  C16 OHN d          53.033  13.508  -4.504  0.00  0.00     0.281 C 
ATOM     13  O3  OHN d          52.503  12.506  -4.107  0.00  0.00    -0.263 OA
ENDBRANCH   5   8
ENDBRANCH   3   4
ENDBRANCH   1   3
BRANCH   1  14
ATOM     14  C9  OHN d          47.868  12.778  -4.326  0.00  0.00     0.079 C 
BRANCH  14  15
ATOM     15  C8  OHN d          48.856  12.078  -3.423  0.00  0.00     0.007 C 
BRANCH  15  16
ATOM     16  C7  OHN d          49.257  10.826  -4.187  0.00  0.00     0.000 C 
BRANCH  16  17
ATOM     17  C6  OHN d          50.234   9.991  -3.354  0.00  0.00     0.000 C 
BRANCH  17  18
ATOM     18  C5  OHN d          50.436  10.678  -2.013  0.00  0.00     0.000 C 
BRANCH  18  19
ATOM     19  C4  OHN d          51.800  10.329  -1.459  0.00  0.00     0.000 C 
BRANCH  19  20
ATOM     20  C3  OHN d          51.989  10.979  -0.102  0.00  0.00    -0.000 C 
BRANCH  20  21
ATOM     21  C2  OHN d          50.673  11.552   0.372  0.00  0.00    -0.005 C 
ATOM     22  C1  OHN d          50.655  11.449   1.872  0.00  0.00     0.005 C 
ENDBRANCH  20  21
ENDBRANCH  19  20
ENDBRANCH  18  19
ENDBRANCH  17  18
ENDBRANCH  16  17
ENDBRANCH  15  16
ENDBRANCH  14  15
ENDBRANCH   1  14
TORSDOF 11
ENDMDL
MODEL 14
REMARK VINA RESULT:      -5.2      9.909     10.864
REMARK  11 active torsions:
REMARK  status: ('A' for Active; 'I' for Inactive)
REMARK    1  A    between atoms: C3_3  and  C2_2 
REMARK    2  A    between atoms: C4_4  and  C3_3 
REMARK    3  A    between atoms: C5_5  and  C4_4 
REMARK    4  A    between atoms: C6_6  and  C5_5 
REMARK    5  A    between atoms: C7_7  and  C6_6 
REMARK    6  A    between atoms: C8_8  and  C7_7 
REMARK    7  A    between atoms: C9_9  and  C8_8 
REMARK    8  A    between atoms: C10_10  and  C9_9 
REMARK    9  A    between atoms: C11_12  and  C10_10 
REMARK   10  A    between atoms: C11_12  and  C12_13 
REMARK       I    between atoms: C12_13  and  N1_15 
REMARK   11  A    between atoms: C13_16  and  N1_15 
ROOT
ATOM      1  C10 OHN d          49.595  11.048  -3.713  0.00  0.00     0.135 C 
ATOM      2  O1  OHN d          49.220  11.683  -2.743  0.00  0.00    -0.297 OA
ENDROOT
BRANCH   1   3
ATOM      3  C11 OHN d          50.960  10.449  -3.777  0.00  0.00     0.181 C 
BRANCH   3   4
ATOM      4  C12 OHN d          51.528  10.286  -2.391  0.00  0.00     0.225 C 
ATOM      5  N1  OHN d          51.790  11.366  -1.667  0.00  0.00    -0.347 N 
ATOM      6  H19 OHN d          51.642  12.298  -2.026  0.00  0.00     0.163 HD
ATOM      7  O2  OHN d          51.729   9.163  -1.993  0.00  0.00    -0.273 OA
BRANCH   5   8
ATOM      8  C13 OHN d          52.295  11.136  -0.344  0.00  0.00     0.186 C 
ATOM      9  C14 OHN d          53.745  11.562  -0.128  0.00  0.00     0.062 C 
ATOM     10  C15 OHN d          53.836  12.201   1.269  0.00  0.00     0.181 C 
ATOM     11  O4  OHN d          52.507  12.564   1.599  0.00  0.00    -0.320 OA
ATOM     12  C16 OHN d          51.606  11.953   0.679  0.00  0.00     0.281 C 
ATOM     13  O3  OHN d          50.414  12.085   0.750  0.00  0.00    -0.263 OA
ENDBRANCH   5   8
ENDBRANCH   3   4
ENDBRANCH   1   3
BRANCH   1  14
ATOM     14  C9  OHN d          48.708  10.899  -4.907  0.00  0.00     0.079 C 
BRANCH  14  15
ATOM     15  C8  OHN d          47.618  11.943  -4.943  0.00  0.00     0.007 C 
BRANCH  15  16
ATOM     16  C7  OHN d          47.996  12.855  -6.100  0.00  0.00     0.000 C 
BRANCH  16  17
ATOM     17  C6  OHN d          48.053  14.311  -5.627  0.00  0.00     0.000 C 
BRANCH  17  18
ATOM     18  C5  OHN d          49.432  14.575  -5.042  0.00  0.00     0.000 C 
BRANCH  18  19
ATOM     19  C4  OHN d          50.496  14.167  -6.037  0.00  0.00     0.000 C 
BRANCH  19  20
ATOM     20  C3  OHN d          51.736  13.694  -5.304  0.00  0.00    -0.000 C 
BRANCH  20  21
ATOM     21  C2  OHN d          52.535  12.778  -6.203  0.00  0.00    -0.005 C 
ATOM     22  C1  OHN d          51.559  12.066  -7.098  0.00  0.00     0.005 C 
ENDBRANCH  20  21
ENDBRANCH  19  20
ENDBRANCH  18  19
ENDBRANCH  17  18
ENDBRANCH  16  17
ENDBRANCH  15  16
ENDBRANCH  14  15
ENDBRANCH   1  14
TORSDOF 11
ENDMDL
MODEL 15
REMARK VINA RESULT:      -5.2      8.657     10.451
REMARK  11 active torsions:
REMARK  status: ('A' for Active; 'I' for Inactive)
REMARK    1  A    between atoms: C3_3  and  C2_2 
REMARK    2  A    between atoms: C4_4  and  C3_3 
REMARK    3  A    between atoms: C5_5  and  C4_4 
REMARK    4  A    between atoms: C6_6  and  C5_5 
REMARK    5  A    between atoms: C7_7  and  C6_6 
REMARK    6  A    between atoms: C8_8  and  C7_7 
REMARK    7  A    between atoms: C9_9  and  C8_8 
REMARK    8  A    between atoms: C10_10  and  C9_9 
REMARK    9  A    between atoms: C11_12  and  C10_10 
REMARK   10  A    between atoms: C11_12  and  C12_13 
REMARK       I    between atoms: C12_13  and  N1_15 
REMARK   11  A    between atoms: C13_16  and  N1_15 
ROOT
ATOM      1  C10 OHN d          46.082  11.116  -8.111  0.00  0.00     0.135 C 
ATOM      2  O1  OHN d          46.472  10.006  -8.431  0.00  0.00    -0.297 OA
ENDROOT
BRANCH   1   3
ATOM      3  C11 OHN d          44.783  11.661  -8.606  0.00  0.00     0.181 C 
BRANCH   3   4
ATOM      4  C12 OHN d          44.127  10.685  -9.546  0.00  0.00     0.225 C 
ATOM      5  N1  OHN d          43.493   9.631  -9.048  0.00  0.00    -0.347 N 
ATOM      6  H19 OHN d          43.457   9.451  -8.055  0.00  0.00     0.163 HD
ATOM      7  O2  OHN d          44.211  10.901 -10.732  0.00  0.00    -0.273 OA
BRANCH   5   8
ATOM      8  C13 OHN d          42.862   8.763  -9.999  0.00  0.00     0.186 C 
ATOM      9  C14 OHN d          43.513   7.390 -10.147  0.00  0.00     0.062 C 
ATOM     10  C15 OHN d          42.384   6.355 -10.287  0.00  0.00     0.181 C 
ATOM     11  O4  OHN d          41.230   6.990  -9.766  0.00  0.00    -0.320 OA
ATOM     12  C16 OHN d          41.489   8.381  -9.598  0.00  0.00     0.281 C 
ATOM     13  O3  OHN d          40.664   9.153  -9.189  0.00  0.00    -0.263 OA
ENDBRANCH   5   8
ENDBRANCH   3   4
ENDBRANCH   1   3
BRANCH   1  14
ATOM     14  C9  OHN d          46.930  11.997  -7.251  0.00  0.00     0.079 C 
BRANCH  14  15
ATOM     15  C8  OHN d          48.306  12.210  -7.834  0.00  0.00     0.007 C 
BRANCH  15  16
ATOM     16  C7  OHN d          49.003  13.134  -6.848  0.00  0.00     0.000 C 
BRANCH  16  17
ATOM     17  C6  OHN d          48.069  13.458  -5.677  0.00  0.00     0.000 C 
BRANCH  17  18
ATOM     18  C5  OHN d          48.810  13.183  -4.378  0.00  0.00     0.000 C 
BRANCH  18  19
ATOM     19  C4  OHN d          48.333  11.875  -3.785  0.00  0.00     0.000 C 
BRANCH  19  20
ATOM     20  C3  OHN d          49.437  10.838  -3.864  0.00  0.00    -0.000 C 
BRANCH  20  21
ATOM     21  C2  OHN d          49.127   9.854  -4.969  0.00  0.00    -0.005 C 
ATOM     22  C1  OHN d          50.377   9.693  -5.788  0.00  0.00     0.005 C 
ENDBRANCH  20  21
ENDBRANCH  19  20
ENDBRANCH  18  19
ENDBRANCH  17  18
ENDBRANCH  16  17
ENDBRANCH  15  16
ENDBRANCH  14  15
ENDBRANCH   1  14
TORSDOF 11
ENDMDL
MODEL 16
REMARK VINA RESULT:      -5.2      9.498     11.266
REMARK  11 active torsions:
REMARK  status: ('A' for Active; 'I' for Inactive)
REMARK    1  A    between atoms: C3_3  and  C2_2 
REMARK    2  A    between atoms: C4_4  and  C3_3 
REMARK    3  A    between atoms: C5_5  and  C4_4 
REMARK    4  A    between atoms: C6_6  and  C5_5 
REMARK    5  A    between atoms: C7_7  and  C6_6 
REMARK    6  A    between atoms: C8_8  and  C7_7 
REMARK    7  A    between atoms: C9_9  and  C8_8 
REMARK    8  A    between atoms: C10_10  and  C9_9 
REMARK    9  A    between atoms: C11_12  and  C10_10 
REMARK   10  A    between atoms: C11_12  and  C12_13 
REMARK       I    between atoms: C12_13  and  N1_15 
REMARK   11  A    between atoms: C13_16  and  N1_15 
ROOT
ATOM      1  C10 OHN d          48.383  14.084  -4.697  0.00  0.00     0.135 C 
ATOM      2  O1  OHN d          48.488  15.041  -3.950  0.00  0.00    -0.297 OA
ENDROOT
BRANCH   1   3
ATOM      3  C11 OHN d          48.785  14.163  -6.132  0.00  0.00     0.181 C 
BRANCH   3   4
ATOM      4  C12 OHN d          50.279  14.019  -6.268  0.00  0.00     0.225 C 
ATOM      5  N1  OHN d          51.064  14.464  -5.295  0.00  0.00    -0.347 N 
ATOM      6  H19 OHN d          50.691  14.918  -4.475  0.00  0.00     0.163 HD
ATOM      7  O2  OHN d          50.707  13.503  -7.273  0.00  0.00    -0.273 OA
BRANCH   5   8
ATOM      8  C13 OHN d          52.473  14.262  -5.475  0.00  0.00     0.186 C 
ATOM      9  C14 OHN d          53.320  15.529  -5.381  0.00  0.00     0.062 C 
ATOM     10  C15 OHN d          54.605  15.170  -4.616  0.00  0.00     0.181 C 
ATOM     11  O4  OHN d          54.299  13.980  -3.912  0.00  0.00    -0.320 OA
ATOM     12  C16 OHN d          53.073  13.442  -4.399  0.00  0.00     0.281 C 
ATOM     13  O3  OHN d          52.598  12.420  -3.982  0.00  0.00    -0.263 OA
ENDBRANCH   5   8
ENDBRANCH   3   4
ENDBRANCH   1   3
BRANCH   1  14
ATOM     14  C9  OHN d          47.786  12.804  -4.206  0.00  0.00     0.079 C 
BRANCH  14  15
ATOM     15  C8  OHN d          48.832  11.848  -3.687  0.00  0.00     0.007 C 
BRANCH  15  16
ATOM     16  C7  OHN d          48.756  10.649  -4.620  0.00  0.00     0.000 C 
BRANCH  16  17
ATOM     17  C6  OHN d          50.146  10.325  -5.176  0.00  0.00     0.000 C 
BRANCH  17  18
ATOM     18  C5  OHN d          50.022  10.075  -6.671  0.00  0.00     0.000 C 
BRANCH  18  19
ATOM     19  C4  OHN d          48.615  10.392  -7.127  0.00  0.00     0.000 C 
BRANCH  19  20
ATOM     20  C3  OHN d          48.644  10.984  -8.523  0.00  0.00    -0.000 C 
BRANCH  20  21
ATOM     21  C2  OHN d          47.333  11.681  -8.804  0.00  0.00    -0.005 C 
ATOM     22  C1  OHN d          46.508  11.603  -7.549  0.00  0.00     0.005 C 
ENDBRANCH  20  21
ENDBRANCH  19  20
ENDBRANCH  18  19
ENDBRANCH  17  18
ENDBRANCH  16  17
ENDBRANCH  15  16
ENDBRANCH  14  15
ENDBRANCH   1  14
TORSDOF 11
ENDMDL
MODEL 17
REMARK VINA RESULT:      -5.2      8.609     10.756
REMARK  11 active torsions:
REMARK  status: ('A' for Active; 'I' for Inactive)
REMARK    1  A    between atoms: C3_3  and  C2_2 
REMARK    2  A    between atoms: C4_4  and  C3_3 
REMARK    3  A    between atoms: C5_5  and  C4_4 
REMARK    4  A    between atoms: C6_6  and  C5_5 
REMARK    5  A    between atoms: C7_7  and  C6_6 
REMARK    6  A    between atoms: C8_8  and  C7_7 
REMARK    7  A    between atoms: C9_9  and  C8_8 
REMARK    8  A    between atoms: C10_10  and  C9_9 
REMARK    9  A    between atoms: C11_12  and  C10_10 
REMARK   10  A    between atoms: C11_12  and  C12_13 
REMARK       I    between atoms: C12_13  and  N1_15 
REMARK   11  A    between atoms: C13_16  and  N1_15 
ROOT
ATOM      1  C10 OHN d          49.635   9.046  -6.175  0.00  0.00     0.135 C 
ATOM      2  O1  OHN d          50.844   9.123  -6.308  0.00  0.00    -0.297 OA
ENDROOT
BRANCH   1   3
ATOM      3  C11 OHN d          48.823   8.062  -6.951  0.00  0.00     0.181 C 
BRANCH   3   4
ATOM      4  C12 OHN d          48.019   8.765  -8.014  0.00  0.00     0.225 C 
ATOM      5  N1  OHN d          46.695   8.769  -7.929  0.00  0.00    -0.347 N 
ATOM      6  H19 OHN d          46.207   8.292  -7.184  0.00  0.00     0.163 HD
ATOM      7  O2  OHN d          48.621   9.301  -8.914  0.00  0.00    -0.273 OA
BRANCH   5   8
ATOM      8  C13 OHN d          45.996   9.487  -8.955  0.00  0.00     0.186 C 
ATOM      9  C14 OHN d          44.787   8.760  -9.539  0.00  0.00     0.062 C 
ATOM     10  C15 OHN d          43.678   9.803  -9.752  0.00  0.00     0.181 C 
ATOM     11  O4  OHN d          44.025  10.892  -8.916  0.00  0.00    -0.320 OA
ATOM     12  C16 OHN d          45.362  10.726  -8.451  0.00  0.00     0.281 C 
ATOM     13  O3  OHN d          45.908  11.525  -7.738  0.00  0.00    -0.263 OA
ENDBRANCH   5   8
ENDBRANCH   3   4
ENDBRANCH   1   3
BRANCH   1  14
ATOM     14  C9  OHN d          48.913   9.986  -5.265  0.00  0.00     0.079 C 
BRANCH  14  15
ATOM     15  C8  OHN d          49.771  10.430  -4.105  0.00  0.00     0.007 C 
BRANCH  15  16
ATOM     16  C7  OHN d          48.947  11.497  -3.402  0.00  0.00     0.000 C 
BRANCH  16  17
ATOM     17  C6  OHN d          47.865  12.034  -4.345  0.00  0.00     0.000 C 
BRANCH  17  18
ATOM     18  C5  OHN d          48.010  13.545  -4.436  0.00  0.00     0.000 C 
BRANCH  18  19
ATOM     19  C4  OHN d          48.332  13.943  -5.860  0.00  0.00     0.000 C 
BRANCH  19  20
ATOM     20  C3  OHN d          49.831  14.103  -6.025  0.00  0.00    -0.000 C 
BRANCH  20  21
ATOM     21  C2  OHN d          50.357  13.017  -6.935  0.00  0.00    -0.005 C 
ATOM     22  C1  OHN d          49.246  12.646  -7.878  0.00  0.00     0.005 C 
ENDBRANCH  20  21
ENDBRANCH  19  20
ENDBRANCH  18  19
ENDBRANCH  17  18
ENDBRANCH  16  17
ENDBRANCH  15  16
ENDBRANCH  14  15
ENDBRANCH   1  14
TORSDOF 11
ENDMDL
MODEL 18
REMARK VINA RESULT:      -5.1      8.816     11.235
REMARK  11 active torsions:
REMARK  status: ('A' for Active; 'I' for Inactive)
REMARK    1  A    between atoms: C3_3  and  C2_2 
REMARK    2  A    between atoms: C4_4  and  C3_3 
REMARK    3  A    between atoms: C5_5  and  C4_4 
REMARK    4  A    between atoms: C6_6  and  C5_5 
REMARK    5  A    between atoms: C7_7  and  C6_6 
REMARK    6  A    between atoms: C8_8  and  C7_7 
REMARK    7  A    between atoms: C9_9  and  C8_8 
REMARK    8  A    between atoms: C10_10  and  C9_9 
REMARK    9  A    between atoms: C11_12  and  C10_10 
REMARK   10  A    between atoms: C11_12  and  C12_13 
REMARK       I    between atoms: C12_13  and  N1_15 
REMARK   11  A    between atoms: C13_16  and  N1_15 
ROOT
ATOM      1  C10 OHN d          49.950   8.940  -7.194  0.00  0.00     0.135 C 
ATOM      2  O1  OHN d          50.418   9.438  -8.203  0.00  0.00    -0.297 OA
ENDROOT
BRANCH   1   3
ATOM      3  C11 OHN d          48.854   7.929  -7.256  0.00  0.00     0.181 C 
BRANCH   3   4
ATOM      4  C12 OHN d          47.731   8.424  -8.131  0.00  0.00     0.225 C 
ATOM      5  N1  OHN d          47.238   9.639  -7.928  0.00  0.00    -0.347 N 
ATOM      6  H19 OHN d          47.578  10.235  -7.187  0.00  0.00     0.163 HD
ATOM      7  O2  OHN d          47.316   7.682  -8.989  0.00  0.00    -0.273 OA
BRANCH   5   8
ATOM      8  C13 OHN d          46.196  10.058  -8.820  0.00  0.00     0.186 C 
ATOM      9  C14 OHN d          45.064  10.842  -8.161  0.00  0.00     0.062 C 
ATOM     10  C15 OHN d          44.668  11.977  -9.122  0.00  0.00     0.181 C 
ATOM     11  O4  OHN d          45.778  12.137  -9.987  0.00  0.00    -0.320 OA
ATOM     12  C16 OHN d          46.667  11.035  -9.827  0.00  0.00     0.281 C 
ATOM     13  O3  OHN d          47.680  10.917 -10.462  0.00  0.00    -0.263 OA
ENDBRANCH   5   8
ENDBRANCH   3   4
ENDBRANCH   1   3
BRANCH   1  14
ATOM     14  C9  OHN d          50.424   9.377  -5.845  0.00  0.00     0.079 C 
BRANCH  14  15
ATOM     15  C8  OHN d          49.281   9.750  -4.932  0.00  0.00     0.007 C 
BRANCH  15  16
ATOM     16  C7  OHN d          49.942  10.447  -3.753  0.00  0.00     0.000 C 
BRANCH  16  17
ATOM     17  C6  OHN d          49.021  11.542  -3.204  0.00  0.00     0.000 C 
BRANCH  17  18
ATOM     18  C5  OHN d          48.061  11.962  -4.306  0.00  0.00     0.000 C 
BRANCH  18  19
ATOM     19  C4  OHN d          48.021  13.472  -4.400  0.00  0.00     0.000 C 
BRANCH  19  20
ATOM     20  C3  OHN d          48.359  13.911  -5.811  0.00  0.00    -0.000 C 
BRANCH  20  21
ATOM     21  C2  OHN d          48.121  12.765  -6.768  0.00  0.00    -0.005 C 
ATOM     22  C1  OHN d          49.251  12.769  -7.760  0.00  0.00     0.005 C 
ENDBRANCH  20  21
ENDBRANCH  19  20
ENDBRANCH  18  19
ENDBRANCH  17  18
ENDBRANCH  16  17
ENDBRANCH  15  16
ENDBRANCH  14  15
ENDBRANCH   1  14
TORSDOF 11
ENDMDL
