MODEL 1
REMARK VINA RESULT:      -7.3      0.000      0.000
REMARK  11 active torsions:
REMARK  status: ('A' for Active; 'I' for Inactive)
REMARK    1  A    between atoms: C3_3  and  C2_2 
REMARK    2  A    between atoms: C4_4  and  C3_3 
REMARK    3  A    between atoms: C5_5  and  C4_4 
REMARK    4  A    between atoms: C6_6  and  C5_5 
REMARK    5  A    between atoms: C7_7  and  C6_6 
REMARK    6  A    between atoms: C8_8  and  C7_7 
REMARK    7  A    between atoms: C9_9  and  C8_8 
REMARK    8  A    between atoms: C10_10  and  C9_9 
REMARK    9  A    between atoms: C11_12  and  C10_10 
REMARK   10  A    between atoms: C11_12  and  C12_13 
REMARK       I    between atoms: C12_13  and  N1_15 
REMARK   11  A    between atoms: C13_16  and  N1_15 
ROOT
ATOM      1  C10 OHN d          39.823  16.684  -1.684  0.00  0.00     0.135 C 
ATOM      2  O1  OHN d          39.674  16.957  -0.506  0.00  0.00    -0.297 OA
ENDROOT
BRANCH   1   3
ATOM      3  C11 OHN d          39.880  15.269  -2.158  0.00  0.00     0.181 C 
BRANCH   3   4
ATOM      4  C12 OHN d          40.712  14.434  -1.220  0.00  0.00     0.225 C 
ATOM      5  N1  OHN d          40.111  13.554  -0.429  0.00  0.00    -0.347 N 
ATOM      6  H19 OHN d          39.107  13.444  -0.420  0.00  0.00     0.163 HD
ATOM      7  O2  OHN d          41.908  14.605  -1.223  0.00  0.00    -0.273 OA
BRANCH   5   8
ATOM      8  C13 OHN d          40.967  12.769   0.411  0.00  0.00     0.186 C 
ATOM      9  C14 OHN d          40.397  12.451   1.791  0.00  0.00     0.062 C 
ATOM     10  C15 OHN d          40.774  10.997   2.124  0.00  0.00     0.181 C 
ATOM     11  O4  OHN d          41.074  10.396   0.878  0.00  0.00    -0.320 OA
ATOM     12  C16 OHN d          41.193  11.406  -0.120  0.00  0.00     0.281 C 
ATOM     13  O3  OHN d          41.464  11.162  -1.265  0.00  0.00    -0.263 OA
ENDBRANCH   5   8
ENDBRANCH   3   4
ENDBRANCH   1   3
BRANCH   1  14
ATOM     14  C9  OHN d          40.015  17.769  -2.694  0.00  0.00     0.079 C 
BRANCH  14  15
ATOM     15  C8  OHN d          40.649  17.260  -3.966  0.00  0.00     0.007 C 
BRANCH  15  16
ATOM     16  C7  OHN d          41.031  18.514  -4.735  0.00  0.00     0.000 C 
BRANCH  16  17
ATOM     17  C6  OHN d          41.086  18.215  -6.237  0.00  0.00     0.000 C 
BRANCH  17  18
ATOM     18  C5  OHN d          42.123  19.127  -6.874  0.00  0.00     0.000 C 
BRANCH  18  19
ATOM     19  C4  OHN d          43.031  18.319  -7.774  0.00  0.00     0.000 C 
BRANCH  19  20
ATOM     20  C3  OHN d          42.214  17.320  -8.570  0.00  0.00    -0.000 C 
BRANCH  20  21
ATOM     21  C2  OHN d          43.089  16.672  -9.619  0.00  0.00    -0.005 C 
ATOM     22  C1  OHN d          42.463  15.351  -9.970  0.00  0.00     0.005 C 
ENDBRANCH  20  21
ENDBRANCH  19  20
ENDBRANCH  18  19
ENDBRANCH  17  18
ENDBRANCH  16  17
ENDBRANCH  15  16
ENDBRANCH  14  15
ENDBRANCH   1  14
TORSDOF 11
ENDMDL
MODEL 2
REMARK VINA RESULT:      -6.3      2.286      5.018
REMARK  11 active torsions:
REMARK  status: ('A' for Active; 'I' for Inactive)
REMARK    1  A    between atoms: C3_3  and  C2_2 
REMARK    2  A    between atoms: C4_4  and  C3_3 
REMARK    3  A    between atoms: C5_5  and  C4_4 
REMARK    4  A    between atoms: C6_6  and  C5_5 
REMARK    5  A    between atoms: C7_7  and  C6_6 
REMARK    6  A    between atoms: C8_8  and  C7_7 
REMARK    7  A    between atoms: C9_9  and  C8_8 
REMARK    8  A    between atoms: C10_10  and  C9_9 
REMARK    9  A    between atoms: C11_12  and  C10_10 
REMARK   10  A    between atoms: C11_12  and  C12_13 
REMARK       I    between atoms: C12_13  and  N1_15 
REMARK   11  A    between atoms: C13_16  and  N1_15 
ROOT
ATOM      1  C10 OHN d          40.799  14.545  -1.760  0.00  0.00     0.135 C 
ATOM      2  O1  OHN d          40.616  13.379  -2.064  0.00  0.00    -0.297 OA
ENDROOT
BRANCH   1   3
ATOM      3  C11 OHN d          40.464  15.061  -0.400  0.00  0.00     0.181 C 
BRANCH   3   4
ATOM      4  C12 OHN d          39.438  16.160  -0.493  0.00  0.00     0.225 C 
ATOM      5  N1  OHN d          39.814  17.416  -0.290  0.00  0.00    -0.347 N 
ATOM      6  H19 OHN d          40.765  17.656  -0.050  0.00  0.00     0.163 HD
ATOM      7  O2  OHN d          38.299  15.849  -0.748  0.00  0.00    -0.273 OA
BRANCH   5   8
ATOM      8  C13 OHN d          38.793  18.414  -0.429  0.00  0.00     0.186 C 
ATOM      9  C14 OHN d          38.118  18.829   0.876  0.00  0.00     0.062 C 
ATOM     10  C15 OHN d          37.905  20.352   0.822  0.00  0.00     0.181 C 
ATOM     11  O4  OHN d          38.809  20.820  -0.162  0.00  0.00    -0.320 OA
ATOM     12  C16 OHN d          39.327  19.714  -0.896  0.00  0.00     0.281 C 
ATOM     13  O3  OHN d          40.103  19.840  -1.805  0.00  0.00    -0.263 OA
ENDBRANCH   5   8
ENDBRANCH   3   4
ENDBRANCH   1   3
BRANCH   1  14
ATOM     14  C9  OHN d          41.315  15.518  -2.771  0.00  0.00     0.079 C 
BRANCH  14  15
ATOM     15  C8  OHN d          40.216  16.064  -3.651  0.00  0.00     0.007 C 
BRANCH  15  16
ATOM     16  C7  OHN d          40.593  17.519  -3.881  0.00  0.00     0.000 C 
BRANCH  16  17
ATOM     17  C6  OHN d          40.589  17.833  -5.381  0.00  0.00     0.000 C 
BRANCH  17  18
ATOM     18  C5  OHN d          41.643  18.895  -5.655  0.00  0.00     0.000 C 
BRANCH  18  19
ATOM     19  C4  OHN d          41.758  19.128  -7.145  0.00  0.00     0.000 C 
BRANCH  19  20
ATOM     20  C3  OHN d          42.761  18.161  -7.744  0.00  0.00    -0.000 C 
BRANCH  20  21
ATOM     21  C2  OHN d          42.057  17.239  -8.713  0.00  0.00    -0.005 C 
ATOM     22  C1  OHN d          43.119  16.509  -9.488  0.00  0.00     0.005 C 
ENDBRANCH  20  21
ENDBRANCH  19  20
ENDBRANCH  18  19
ENDBRANCH  17  18
ENDBRANCH  16  17
ENDBRANCH  15  16
ENDBRANCH  14  15
ENDBRANCH   1  14
TORSDOF 11
ENDMDL
MODEL 3
REMARK VINA RESULT:      -6.3      1.509      2.802
REMARK  11 active torsions:
REMARK  status: ('A' for Active; 'I' for Inactive)
REMARK    1  A    between atoms: C3_3  and  C2_2 
REMARK    2  A    between atoms: C4_4  and  C3_3 
REMARK    3  A    between atoms: C5_5  and  C4_4 
REMARK    4  A    between atoms: C6_6  and  C5_5 
REMARK    5  A    between atoms: C7_7  and  C6_6 
REMARK    6  A    between atoms: C8_8  and  C7_7 
REMARK    7  A    between atoms: C9_9  and  C8_8 
REMARK    8  A    between atoms: C10_10  and  C9_9 
REMARK    9  A    between atoms: C11_12  and  C10_10 
REMARK   10  A    between atoms: C11_12  and  C12_13 
REMARK       I    between atoms: C12_13  and  N1_15 
REMARK   11  A    between atoms: C13_16  and  N1_15 
ROOT
ATOM      1  C10 OHN d          40.335  17.659  -3.743  0.00  0.00     0.135 C 
ATOM      2  O1  OHN d          39.980  16.551  -4.106  0.00  0.00    -0.297 OA
ENDROOT
BRANCH   1   3
ATOM      3  C11 OHN d          39.957  18.202  -2.404  0.00  0.00     0.181 C 
BRANCH   3   4
ATOM      4  C12 OHN d          39.807  17.083  -1.407  0.00  0.00     0.225 C 
ATOM      5  N1  OHN d          40.134  15.848  -1.763  0.00  0.00    -0.347 N 
ATOM      6  H19 OHN d          40.459  15.631  -2.694  0.00  0.00     0.163 HD
ATOM      7  O2  OHN d          39.384  17.360  -0.309  0.00  0.00    -0.273 OA
BRANCH   5   8
ATOM      8  C13 OHN d          40.000  14.839  -0.753  0.00  0.00     0.186 C 
ATOM      9  C14 OHN d          38.809  13.902  -0.936  0.00  0.00     0.062 C 
ATOM     10  C15 OHN d          39.275  12.484  -0.562  0.00  0.00     0.181 C 
ATOM     11  O4  OHN d          40.688  12.521  -0.652  0.00  0.00    -0.320 OA
ATOM     12  C16 OHN d          41.122  13.874  -0.759  0.00  0.00     0.281 C 
ATOM     13  O3  OHN d          42.281  14.183  -0.829  0.00  0.00    -0.263 OA
ENDBRANCH   5   8
ENDBRANCH   3   4
ENDBRANCH   1   3
BRANCH   1  14
ATOM     14  C9  OHN d          41.117  18.542  -4.661  0.00  0.00     0.079 C 
BRANCH  14  15
ATOM     15  C8  OHN d          41.030  18.089  -6.099  0.00  0.00     0.007 C 
BRANCH  15  16
ATOM     16  C7  OHN d          41.876  19.091  -6.870  0.00  0.00     0.000 C 
BRANCH  16  17
ATOM     17  C6  OHN d          42.944  18.358  -7.690  0.00  0.00     0.000 C 
BRANCH  17  18
ATOM     18  C5  OHN d          42.252  17.337  -8.580  0.00  0.00     0.000 C 
BRANCH  18  19
ATOM     19  C4  OHN d          43.250  16.748  -9.553  0.00  0.00     0.000 C 
BRANCH  19  20
ATOM     20  C3  OHN d          42.617  15.596 -10.308  0.00  0.00    -0.000 C 
BRANCH  20  21
ATOM     21  C2  OHN d          43.197  15.527 -11.703  0.00  0.00    -0.005 C 
ATOM     22  C1  OHN d          44.117  16.706 -11.863  0.00  0.00     0.005 C 
ENDBRANCH  20  21
ENDBRANCH  19  20
ENDBRANCH  18  19
ENDBRANCH  17  18
ENDBRANCH  16  17
ENDBRANCH  15  16
ENDBRANCH  14  15
ENDBRANCH   1  14
TORSDOF 11
ENDMDL
MODEL 4
REMARK VINA RESULT:      -6.1      1.461      1.997
REMARK  11 active torsions:
REMARK  status: ('A' for Active; 'I' for Inactive)
REMARK    1  A    between atoms: C3_3  and  C2_2 
REMARK    2  A    between atoms: C4_4  and  C3_3 
REMARK    3  A    between atoms: C5_5  and  C4_4 
REMARK    4  A    between atoms: C6_6  and  C5_5 
REMARK    5  A    between atoms: C7_7  and  C6_6 
REMARK    6  A    between atoms: C8_8  and  C7_7 
REMARK    7  A    between atoms: C9_9  and  C8_8 
REMARK    8  A    between atoms: C10_10  and  C9_9 
REMARK    9  A    between atoms: C11_12  and  C10_10 
REMARK   10  A    between atoms: C11_12  and  C12_13 
REMARK       I    between atoms: C12_13  and  N1_15 
REMARK   11  A    between atoms: C13_16  and  N1_15 
ROOT
ATOM      1  C10 OHN d          39.448  17.107  -0.824  0.00  0.00     0.135 C 
ATOM      2  O1  OHN d          40.250  17.040   0.091  0.00  0.00    -0.297 OA
ENDROOT
BRANCH   1   3
ATOM      3  C11 OHN d          38.230  16.244  -0.861  0.00  0.00     0.181 C 
BRANCH   3   4
ATOM      4  C12 OHN d          38.588  14.849  -1.301  0.00  0.00     0.225 C 
ATOM      5  N1  OHN d          39.651  14.255  -0.775  0.00  0.00    -0.347 N 
ATOM      6  H19 OHN d          40.244  14.722  -0.104  0.00  0.00     0.163 HD
ATOM      7  O2  OHN d          37.884  14.321  -2.130  0.00  0.00    -0.273 OA
BRANCH   5   8
ATOM      8  C13 OHN d          39.911  12.915  -1.214  0.00  0.00     0.186 C 
ATOM      9  C14 OHN d          41.249  12.719  -1.924  0.00  0.00     0.062 C 
ATOM     10  C15 OHN d          41.831  11.377  -1.452  0.00  0.00     0.181 C 
ATOM     11  O4  OHN d          41.162  11.087  -0.238  0.00  0.00    -0.320 OA
ATOM     12  C16 OHN d          40.049  11.964  -0.088  0.00  0.00     0.281 C 
ATOM     13  O3  OHN d          39.301  11.913   0.851  0.00  0.00    -0.263 OA
ENDBRANCH   5   8
ENDBRANCH   3   4
ENDBRANCH   1   3
BRANCH   1  14
ATOM     14  C9  OHN d          39.693  18.022  -1.981  0.00  0.00     0.079 C 
BRANCH  14  15
ATOM     15  C8  OHN d          40.276  17.297  -3.169  0.00  0.00     0.007 C 
BRANCH  15  16
ATOM     16  C7  OHN d          40.798  18.400  -4.076  0.00  0.00     0.000 C 
BRANCH  16  17
ATOM     17  C6  OHN d          40.913  17.888  -5.516  0.00  0.00     0.000 C 
BRANCH  17  18
ATOM     18  C5  OHN d          41.722  18.893  -6.322  0.00  0.00     0.000 C 
BRANCH  18  19
ATOM     19  C4  OHN d          41.807  18.441  -7.764  0.00  0.00     0.000 C 
BRANCH  19  20
ATOM     20  C3  OHN d          43.175  17.848  -8.040  0.00  0.00    -0.000 C 
BRANCH  20  21
ATOM     21  C2  OHN d          43.078  16.867  -9.185  0.00  0.00    -0.005 C 
ATOM     22  C1  OHN d          41.667  16.346  -9.209  0.00  0.00     0.005 C 
ENDBRANCH  20  21
ENDBRANCH  19  20
ENDBRANCH  18  19
ENDBRANCH  17  18
ENDBRANCH  16  17
ENDBRANCH  15  16
ENDBRANCH  14  15
ENDBRANCH   1  14
TORSDOF 11
ENDMDL
MODEL 5
REMARK VINA RESULT:      -6.0      1.219      2.292
REMARK  11 active torsions:
REMARK  status: ('A' for Active; 'I' for Inactive)
REMARK    1  A    between atoms: C3_3  and  C2_2 
REMARK    2  A    between atoms: C4_4  and  C3_3 
REMARK    3  A    between atoms: C5_5  and  C4_4 
REMARK    4  A    between atoms: C6_6  and  C5_5 
REMARK    5  A    between atoms: C7_7  and  C6_6 
REMARK    6  A    between atoms: C8_8  and  C7_7 
REMARK    7  A    between atoms: C9_9  and  C8_8 
REMARK    8  A    between atoms: C10_10  and  C9_9 
REMARK    9  A    between atoms: C11_12  and  C10_10 
REMARK   10  A    between atoms: C11_12  and  C12_13 
REMARK       I    between atoms: C12_13  and  N1_15 
REMARK   11  A    between atoms: C13_16  and  N1_15 
ROOT
ATOM      1  C10 OHN d          39.460  15.343  -1.744  0.00  0.00     0.135 C 
ATOM      2  O1  OHN d          38.819  14.574  -2.439  0.00  0.00    -0.297 OA
ENDROOT
BRANCH   1   3
ATOM      3  C11 OHN d          40.952  15.312  -1.714  0.00  0.00     0.181 C 
BRANCH   3   4
ATOM      4  C12 OHN d          41.436  14.230  -0.783  0.00  0.00     0.225 C 
ATOM      5  N1  OHN d          40.548  13.478  -0.146  0.00  0.00    -0.347 N 
ATOM      6  H19 OHN d          39.554  13.624  -0.248  0.00  0.00     0.163 HD
ATOM      7  O2  OHN d          42.629  14.094  -0.650  0.00  0.00    -0.273 OA
BRANCH   5   8
ATOM      8  C13 OHN d          41.080  12.445   0.695  0.00  0.00     0.186 C 
ATOM      9  C14 OHN d          40.243  12.131   1.933  0.00  0.00     0.062 C 
ATOM     10  C15 OHN d          40.256  10.605   2.125  0.00  0.00     0.181 C 
ATOM     11  O4  OHN d          40.622  10.074   0.864  0.00  0.00    -0.320 OA
ATOM     12  C16 OHN d          41.103  11.123   0.029  0.00  0.00     0.281 C 
ATOM     13  O3  OHN d          41.498  10.936  -1.091  0.00  0.00    -0.263 OA
ENDBRANCH   5   8
ENDBRANCH   3   4
ENDBRANCH   1   3
BRANCH   1  14
ATOM     14  C9  OHN d          38.761  16.312  -0.846  0.00  0.00     0.079 C 
BRANCH  14  15
ATOM     15  C8  OHN d          39.496  17.626  -0.741  0.00  0.00     0.007 C 
BRANCH  15  16
ATOM     16  C7  OHN d          39.047  18.418  -1.959  0.00  0.00     0.000 C 
BRANCH  16  17
ATOM     17  C6  OHN d          40.265  18.913  -2.745  0.00  0.00     0.000 C 
BRANCH  17  18
ATOM     18  C5  OHN d          40.441  18.029  -3.970  0.00  0.00     0.000 C 
BRANCH  18  19
ATOM     19  C4  OHN d          41.375  18.699  -4.954  0.00  0.00     0.000 C 
BRANCH  19  20
ATOM     20  C3  OHN d          41.068  18.227  -6.362  0.00  0.00    -0.000 C 
BRANCH  20  21
ATOM     21  C2  OHN d          42.087  18.799  -7.320  0.00  0.00    -0.005 C 
ATOM     22  C1  OHN d          42.431  17.716  -8.305  0.00  0.00     0.005 C 
ENDBRANCH  20  21
ENDBRANCH  19  20
ENDBRANCH  18  19
ENDBRANCH  17  18
ENDBRANCH  16  17
ENDBRANCH  15  16
ENDBRANCH  14  15
ENDBRANCH   1  14
TORSDOF 11
ENDMDL
MODEL 6
REMARK VINA RESULT:      -5.8      5.031      9.068
REMARK  11 active torsions:
REMARK  status: ('A' for Active; 'I' for Inactive)
REMARK    1  A    between atoms: C3_3  and  C2_2 
REMARK    2  A    between atoms: C4_4  and  C3_3 
REMARK    3  A    between atoms: C5_5  and  C4_4 
REMARK    4  A    between atoms: C6_6  and  C5_5 
REMARK    5  A    between atoms: C7_7  and  C6_6 
REMARK    6  A    between atoms: C8_8  and  C7_7 
REMARK    7  A    between atoms: C9_9  and  C8_8 
REMARK    8  A    between atoms: C10_10  and  C9_9 
REMARK    9  A    between atoms: C11_12  and  C10_10 
REMARK   10  A    between atoms: C11_12  and  C12_13 
REMARK       I    between atoms: C12_13  and  N1_15 
REMARK   11  A    between atoms: C13_16  and  N1_15 
ROOT
ATOM      1  C10 OHN d          41.861  17.493  -8.347  0.00  0.00     0.135 C 
ATOM      2  O1  OHN d          41.020  16.646  -8.593  0.00  0.00    -0.297 OA
ENDROOT
BRANCH   1   3
ATOM      3  C11 OHN d          43.284  17.330  -8.769  0.00  0.00     0.181 C 
BRANCH   3   4
ATOM      4  C12 OHN d          43.372  16.454  -9.991  0.00  0.00     0.225 C 
ATOM      5  N1  OHN d          43.047  15.172  -9.895  0.00  0.00    -0.347 N 
ATOM      6  H19 OHN d          42.763  14.758  -9.019  0.00  0.00     0.163 HD
ATOM      7  O2  OHN d          43.746  16.962 -11.022  0.00  0.00    -0.273 OA
BRANCH   5   8
ATOM      8  C13 OHN d          43.120  14.407 -11.106  0.00  0.00     0.186 C 
ATOM      9  C14 OHN d          43.874  13.084 -10.985  0.00  0.00     0.062 C 
ATOM     10  C15 OHN d          43.107  12.038 -11.811  0.00  0.00     0.181 C 
ATOM     11  O4  OHN d          41.802  12.566 -11.962  0.00  0.00    -0.320 OA
ATOM     12  C16 OHN d          41.794  13.934 -11.563  0.00  0.00     0.281 C 
ATOM     13  O3  OHN d          40.810  14.622 -11.612  0.00  0.00    -0.263 OA
ENDBRANCH   5   8
ENDBRANCH   3   4
ENDBRANCH   1   3
BRANCH   1  14
ATOM     14  C9  OHN d          41.500  18.709  -7.555  0.00  0.00     0.079 C 
BRANCH  14  15
ATOM     15  C8  OHN d          41.823  18.551  -6.089  0.00  0.00     0.007 C 
BRANCH  15  16
ATOM     16  C7  OHN d          40.581  17.913  -5.487  0.00  0.00     0.000 C 
BRANCH  16  17
ATOM     17  C6  OHN d          40.634  17.997  -3.957  0.00  0.00     0.000 C 
BRANCH  17  18
ATOM     18  C5  OHN d          40.548  16.587  -3.393  0.00  0.00     0.000 C 
BRANCH  18  19
ATOM     19  C4  OHN d          40.056  16.638  -1.964  0.00  0.00     0.000 C 
BRANCH  19  20
ATOM     20  C3  OHN d          40.371  15.331  -1.262  0.00  0.00    -0.000 C 
BRANCH  20  21
ATOM     21  C2  OHN d          41.384  14.555  -2.070  0.00  0.00    -0.005 C 
ATOM     22  C1  OHN d          41.888  13.436  -1.201  0.00  0.00     0.005 C 
ENDBRANCH  20  21
ENDBRANCH  19  20
ENDBRANCH  18  19
ENDBRANCH  17  18
ENDBRANCH  16  17
ENDBRANCH  15  16
ENDBRANCH  14  15
ENDBRANCH   1  14
TORSDOF 11
ENDMDL
MODEL 7
REMARK VINA RESULT:      -5.8      4.766      9.176
REMARK  11 active torsions:
REMARK  status: ('A' for Active; 'I' for Inactive)
REMARK    1  A    between atoms: C3_3  and  C2_2 
REMARK    2  A    between atoms: C4_4  and  C3_3 
REMARK    3  A    between atoms: C5_5  and  C4_4 
REMARK    4  A    between atoms: C6_6  and  C5_5 
REMARK    5  A    between atoms: C7_7  and  C6_6 
REMARK    6  A    between atoms: C8_8  and  C7_7 
REMARK    7  A    between atoms: C9_9  and  C8_8 
REMARK    8  A    between atoms: C10_10  and  C9_9 
REMARK    9  A    between atoms: C11_12  and  C10_10 
REMARK   10  A    between atoms: C11_12  and  C12_13 
REMARK       I    between atoms: C12_13  and  N1_15 
REMARK   11  A    between atoms: C13_16  and  N1_15 
ROOT
ATOM      1  C10 OHN d          42.007  18.873  -7.012  0.00  0.00     0.135 C 
ATOM      2  O1  OHN d          41.799  20.056  -7.216  0.00  0.00    -0.297 OA
ENDROOT
BRANCH   1   3
ATOM      3  C11 OHN d          43.184  18.172  -7.607  0.00  0.00     0.181 C 
BRANCH   3   4
ATOM      4  C12 OHN d          42.759  17.344  -8.792  0.00  0.00     0.225 C 
ATOM      5  N1  OHN d          43.651  17.046  -9.727  0.00  0.00    -0.347 N 
ATOM      6  H19 OHN d          44.603  17.377  -9.681  0.00  0.00     0.163 HD
ATOM      7  O2  OHN d          41.606  16.986  -8.844  0.00  0.00    -0.273 OA
BRANCH   5   8
ATOM      8  C13 OHN d          43.185  16.225 -10.808  0.00  0.00     0.186 C 
ATOM      9  C14 OHN d          43.728  16.606 -12.183  0.00  0.00     0.062 C 
ATOM     10  C15 OHN d          44.033  15.301 -12.937  0.00  0.00     0.181 C 
ATOM     11  O4  OHN d          44.140  14.307 -11.934  0.00  0.00    -0.320 OA
ATOM     12  C16 OHN d          43.651  14.824 -10.700  0.00  0.00     0.281 C 
ATOM     13  O3  OHN d          43.611  14.173  -9.690  0.00  0.00    -0.263 OA
ENDBRANCH   5   8
ENDBRANCH   3   4
ENDBRANCH   1   3
BRANCH   1  14
ATOM     14  C9  OHN d          41.048  18.064  -6.200  0.00  0.00     0.079 C 
BRANCH  14  15
ATOM     15  C8  OHN d          41.090  18.428  -4.736  0.00  0.00     0.007 C 
BRANCH  15  16
ATOM     16  C7  OHN d          40.421  17.260  -4.028  0.00  0.00     0.000 C 
BRANCH  16  17
ATOM     17  C6  OHN d          40.086  17.642  -2.582  0.00  0.00     0.000 C 
BRANCH  17  18
ATOM     18  C5  OHN d          40.153  16.388  -1.724  0.00  0.00     0.000 C 
BRANCH  18  19
ATOM     19  C4  OHN d          41.080  15.379  -2.365  0.00  0.00     0.000 C 
BRANCH  19  20
ATOM     20  C3  OHN d          40.597  13.972  -2.071  0.00  0.00    -0.000 C 
BRANCH  20  21
ATOM     21  C2  OHN d          41.749  13.138  -1.560  0.00  0.00    -0.005 C 
ATOM     22  C1  OHN d          41.651  13.110  -0.060  0.00  0.00     0.005 C 
ENDBRANCH  20  21
ENDBRANCH  19  20
ENDBRANCH  18  19
ENDBRANCH  17  18
ENDBRANCH  16  17
ENDBRANCH  15  16
ENDBRANCH  14  15
ENDBRANCH   1  14
TORSDOF 11
ENDMDL
MODEL 8
REMARK VINA RESULT:      -5.7      1.995      3.333
REMARK  11 active torsions:
REMARK  status: ('A' for Active; 'I' for Inactive)
REMARK    1  A    between atoms: C3_3  and  C2_2 
REMARK    2  A    between atoms: C4_4  and  C3_3 
REMARK    3  A    between atoms: C5_5  and  C4_4 
REMARK    4  A    between atoms: C6_6  and  C5_5 
REMARK    5  A    between atoms: C7_7  and  C6_6 
REMARK    6  A    between atoms: C8_8  and  C7_7 
REMARK    7  A    between atoms: C9_9  and  C8_8 
REMARK    8  A    between atoms: C10_10  and  C9_9 
REMARK    9  A    between atoms: C11_12  and  C10_10 
REMARK   10  A    between atoms: C11_12  and  C12_13 
REMARK       I    between atoms: C12_13  and  N1_15 
REMARK   11  A    between atoms: C13_16  and  N1_15 
ROOT
ATOM      1  C10 OHN d          40.564  17.881  -5.003  0.00  0.00     0.135 C 
ATOM      2  O1  OHN d          39.766  17.349  -5.754  0.00  0.00    -0.297 OA
ENDROOT
BRANCH   1   3
ATOM      3  C11 OHN d          40.477  17.714  -3.522  0.00  0.00     0.181 C 
BRANCH   3   4
ATOM      4  C12 OHN d          40.396  16.253  -3.162  0.00  0.00     0.225 C 
ATOM      5  N1  OHN d          40.980  15.826  -2.050  0.00  0.00    -0.347 N 
ATOM      6  H19 OHN d          41.499  16.449  -1.448  0.00  0.00     0.163 HD
ATOM      7  O2  OHN d          39.799  15.519  -3.914  0.00  0.00    -0.273 OA
BRANCH   5   8
ATOM      8  C13 OHN d          40.833  14.431  -1.752  0.00  0.00     0.186 C 
ATOM      9  C14 OHN d          41.988  13.817  -0.965  0.00  0.00     0.062 C 
ATOM     10  C15 OHN d          41.383  12.852   0.068  0.00  0.00     0.181 C 
ATOM     11  O4  OHN d          40.031  13.251   0.204  0.00  0.00    -0.320 OA
ATOM     12  C16 OHN d          39.697  14.160  -0.841  0.00  0.00     0.281 C 
ATOM     13  O3  OHN d          38.601  14.635  -0.967  0.00  0.00    -0.263 OA
ENDBRANCH   5   8
ENDBRANCH   3   4
ENDBRANCH   1   3
BRANCH   1  14
ATOM     14  C9  OHN d          41.631  18.777  -5.544  0.00  0.00     0.079 C 
BRANCH  14  15
ATOM     15  C8  OHN d          41.644  18.803  -7.054  0.00  0.00     0.007 C 
BRANCH  15  16
ATOM     16  C7  OHN d          43.056  18.390  -7.435  0.00  0.00     0.000 C 
BRANCH  16  17
ATOM     17  C6  OHN d          43.030  17.540  -8.710  0.00  0.00     0.000 C 
BRANCH  17  18
ATOM     18  C5  OHN d          41.693  16.820  -8.784  0.00  0.00     0.000 C 
BRANCH  18  19
ATOM     19  C4  OHN d          41.802  15.631  -9.713  0.00  0.00     0.000 C 
BRANCH  19  20
ATOM     20  C3  OHN d          43.261  15.277  -9.930  0.00  0.00    -0.000 C 
BRANCH  20  21
ATOM     21  C2  OHN d          43.498  14.989 -11.395  0.00  0.00    -0.005 C 
ATOM     22  C1  OHN d          43.694  16.311 -12.084  0.00  0.00     0.005 C 
ENDBRANCH  20  21
ENDBRANCH  19  20
ENDBRANCH  18  19
ENDBRANCH  17  18
ENDBRANCH  16  17
ENDBRANCH  15  16
ENDBRANCH  14  15
ENDBRANCH   1  14
TORSDOF 11
ENDMDL
MODEL 9
REMARK VINA RESULT:      -5.5      8.403      9.624
REMARK  11 active torsions:
REMARK  status: ('A' for Active; 'I' for Inactive)
REMARK    1  A    between atoms: C3_3  and  C2_2 
REMARK    2  A    between atoms: C4_4  and  C3_3 
REMARK    3  A    between atoms: C5_5  and  C4_4 
REMARK    4  A    between atoms: C6_6  and  C5_5 
REMARK    5  A    between atoms: C7_7  and  C6_6 
REMARK    6  A    between atoms: C8_8  and  C7_7 
REMARK    7  A    between atoms: C9_9  and  C8_8 
REMARK    8  A    between atoms: C10_10  and  C9_9 
REMARK    9  A    between atoms: C11_12  and  C10_10 
REMARK   10  A    between atoms: C11_12  and  C12_13 
REMARK       I    between atoms: C12_13  and  N1_15 
REMARK   11  A    between atoms: C13_16  and  N1_15 
ROOT
ATOM      1  C10 OHN d          48.177  14.101  -4.635  0.00  0.00     0.135 C 
ATOM      2  O1  OHN d          48.344  15.010  -3.841  0.00  0.00    -0.297 OA
ENDROOT
BRANCH   1   3
ATOM      3  C11 OHN d          47.561  12.805  -4.224  0.00  0.00     0.181 C 
BRANCH   3   4
ATOM      4  C12 OHN d          48.629  11.810  -3.851  0.00  0.00     0.225 C 
ATOM      5  N1  OHN d          49.512  12.128  -2.913  0.00  0.00    -0.347 N 
ATOM      6  H19 OHN d          49.504  13.029  -2.457  0.00  0.00     0.163 HD
ATOM      7  O2  OHN d          48.640  10.751  -4.432  0.00  0.00    -0.273 OA
BRANCH   5   8
ATOM      8  C13 OHN d          50.477  11.120  -2.584  0.00  0.00     0.186 C 
ATOM      9  C14 OHN d          51.777  11.191  -3.381  0.00  0.00     0.062 C 
ATOM     10  C15 OHN d          52.932  10.882  -2.412  0.00  0.00     0.181 C 
ATOM     11  O4  OHN d          52.404  11.115  -1.119  0.00  0.00    -0.320 OA
ATOM     12  C16 OHN d          50.988  11.250  -1.201  0.00  0.00     0.281 C 
ATOM     13  O3  OHN d          50.294  11.435  -0.237  0.00  0.00    -0.263 OA
ENDBRANCH   5   8
ENDBRANCH   3   4
ENDBRANCH   1   3
BRANCH   1  14
ATOM     14  C9  OHN d          48.646  14.236  -6.049  0.00  0.00     0.079 C 
BRANCH  14  15
ATOM     15  C8  OHN d          50.133  14.017  -6.181  0.00  0.00     0.007 C 
BRANCH  15  16
ATOM     16  C7  OHN d          50.278  13.044  -7.341  0.00  0.00     0.000 C 
BRANCH  16  17
ATOM     17  C6  OHN d          48.897  12.591  -7.824  0.00  0.00     0.000 C 
BRANCH  17  18
ATOM     18  C5  OHN d          48.930  11.086  -8.039  0.00  0.00     0.000 C 
BRANCH  18  19
ATOM     19  C4  OHN d          47.539  10.515  -7.874  0.00  0.00     0.000 C 
BRANCH  19  20
ATOM     20  C3  OHN d          46.557  11.628  -7.561  0.00  0.00    -0.000 C 
BRANCH  20  21
ATOM     21  C2  OHN d          45.163  11.197  -7.954  0.00  0.00    -0.005 C 
ATOM     22  C1  OHN d          44.640  12.212  -8.933  0.00  0.00     0.005 C 
ENDBRANCH  20  21
ENDBRANCH  19  20
ENDBRANCH  18  19
ENDBRANCH  17  18
ENDBRANCH  16  17
ENDBRANCH  15  16
ENDBRANCH  14  15
ENDBRANCH   1  14
TORSDOF 11
ENDMDL
MODEL 10
REMARK VINA RESULT:      -5.5      4.441      7.820
REMARK  11 active torsions:
REMARK  status: ('A' for Active; 'I' for Inactive)
REMARK    1  A    between atoms: C3_3  and  C2_2 
REMARK    2  A    between atoms: C4_4  and  C3_3 
REMARK    3  A    between atoms: C5_5  and  C4_4 
REMARK    4  A    between atoms: C6_6  and  C5_5 
REMARK    5  A    between atoms: C7_7  and  C6_6 
REMARK    6  A    between atoms: C8_8  and  C7_7 
REMARK    7  A    between atoms: C9_9  and  C8_8 
REMARK    8  A    between atoms: C10_10  and  C9_9 
REMARK    9  A    between atoms: C11_12  and  C10_10 
REMARK   10  A    between atoms: C11_12  and  C12_13 
REMARK       I    between atoms: C12_13  and  N1_15 
REMARK   11  A    between atoms: C13_16  and  N1_15 
ROOT
ATOM      1  C10 OHN d          38.580  15.187  -1.248  0.00  0.00     0.135 C 
ATOM      2  O1  OHN d          37.371  15.119  -1.380  0.00  0.00    -0.297 OA
ENDROOT
BRANCH   1   3
ATOM      3  C11 OHN d          39.201  15.753  -0.014  0.00  0.00     0.181 C 
BRANCH   3   4
ATOM      4  C12 OHN d          39.026  17.249   0.023  0.00  0.00     0.225 C 
ATOM      5  N1  OHN d          38.317  17.843  -0.928  0.00  0.00    -0.347 N 
ATOM      6  H19 OHN d          37.910  17.323  -1.693  0.00  0.00     0.163 HD
ATOM      7  O2  OHN d          39.548  17.856   0.928  0.00  0.00    -0.273 OA
BRANCH   5   8
ATOM      8  C13 OHN d          38.161  19.263  -0.810  0.00  0.00     0.186 C 
ATOM      9  C14 OHN d          37.890  19.764   0.607  0.00  0.00     0.062 C 
ATOM     10  C15 OHN d          38.690  21.064   0.799  0.00  0.00     0.181 C 
ATOM     11  O4  OHN d          39.695  21.033  -0.199  0.00  0.00    -0.320 OA
ATOM     12  C16 OHN d          39.401  20.002  -1.137  0.00  0.00     0.281 C 
ATOM     13  O3  OHN d          40.090  19.778  -2.096  0.00  0.00    -0.263 OA
ENDBRANCH   5   8
ENDBRANCH   3   4
ENDBRANCH   1   3
BRANCH   1  14
ATOM     14  C9  OHN d          39.488  14.754  -2.353  0.00  0.00     0.079 C 
BRANCH  14  15
ATOM     15  C8  OHN d          40.787  15.524  -2.360  0.00  0.00     0.007 C 
BRANCH  15  16
ATOM     16  C7  OHN d          41.869  14.455  -2.357  0.00  0.00     0.000 C 
BRANCH  16  17
ATOM     17  C6  OHN d          41.759  13.597  -1.092  0.00  0.00     0.000 C 
BRANCH  17  18
ATOM     18  C5  OHN d          41.435  12.169  -1.502  0.00  0.00     0.000 C 
BRANCH  18  19
ATOM     19  C4  OHN d          41.021  11.369  -0.287  0.00  0.00     0.000 C 
BRANCH  19  20
ATOM     20  C3  OHN d          39.981  12.136   0.507  0.00  0.00    -0.000 C 
BRANCH  20  21
ATOM     21  C2  OHN d          40.164  11.857   1.981  0.00  0.00    -0.005 C 
ATOM     22  C1  OHN d          41.392  11.002   2.125  0.00  0.00     0.005 C 
ENDBRANCH  20  21
ENDBRANCH  19  20
ENDBRANCH  18  19
ENDBRANCH  17  18
ENDBRANCH  16  17
ENDBRANCH  15  16
ENDBRANCH  14  15
ENDBRANCH   1  14
TORSDOF 11
ENDMDL
MODEL 11
REMARK VINA RESULT:      -5.4      2.662      4.086
REMARK  11 active torsions:
REMARK  status: ('A' for Active; 'I' for Inactive)
REMARK    1  A    between atoms: C3_3  and  C2_2 
REMARK    2  A    between atoms: C4_4  and  C3_3 
REMARK    3  A    between atoms: C5_5  and  C4_4 
REMARK    4  A    between atoms: C6_6  and  C5_5 
REMARK    5  A    between atoms: C7_7  and  C6_6 
REMARK    6  A    between atoms: C8_8  and  C7_7 
REMARK    7  A    between atoms: C9_9  and  C8_8 
REMARK    8  A    between atoms: C10_10  and  C9_9 
REMARK    9  A    between atoms: C11_12  and  C10_10 
REMARK   10  A    between atoms: C11_12  and  C12_13 
REMARK       I    between atoms: C12_13  and  N1_15 
REMARK   11  A    between atoms: C13_16  and  N1_15 
ROOT
ATOM      1  C10 OHN d          39.047  16.127  -0.917  0.00  0.00     0.135 C 
ATOM      2  O1  OHN d          37.898  15.726  -0.844  0.00  0.00    -0.297 OA
ENDROOT
BRANCH   1   3
ATOM      3  C11 OHN d          40.067  15.430  -1.755  0.00  0.00     0.181 C 
BRANCH   3   4
ATOM      4  C12 OHN d          40.844  14.442  -0.924  0.00  0.00     0.225 C 
ATOM      5  N1  OHN d          40.187  13.590  -0.147  0.00  0.00    -0.347 N 
ATOM      6  H19 OHN d          39.180  13.600  -0.077  0.00  0.00     0.163 HD
ATOM      7  O2  OHN d          42.049  14.469  -0.996  0.00  0.00    -0.273 OA
BRANCH   5   8
ATOM      8  C13 OHN d          40.988  12.655   0.589  0.00  0.00     0.186 C 
ATOM      9  C14 OHN d          40.418  12.249   1.946  0.00  0.00     0.062 C 
ATOM     10  C15 OHN d          40.675  10.743   2.123  0.00  0.00     0.181 C 
ATOM     11  O4  OHN d          40.900  10.247   0.815  0.00  0.00    -0.320 OA
ATOM     12  C16 OHN d          41.086  11.339  -0.081  0.00  0.00     0.281 C 
ATOM     13  O3  OHN d          41.314  11.190  -1.251  0.00  0.00    -0.263 OA
ENDBRANCH   5   8
ENDBRANCH   3   4
ENDBRANCH   1   3
BRANCH   1  14
ATOM     14  C9  OHN d          39.489  17.307  -0.113  0.00  0.00     0.079 C 
BRANCH  14  15
ATOM     15  C8  OHN d          38.424  17.773   0.850  0.00  0.00     0.007 C 
BRANCH  15  16
ATOM     16  C7  OHN d          38.539  19.289   0.849  0.00  0.00     0.000 C 
BRANCH  16  17
ATOM     17  C6  OHN d          38.396  19.827  -0.579  0.00  0.00     0.000 C 
BRANCH  17  18
ATOM     18  C5  OHN d          39.402  20.950  -0.775  0.00  0.00     0.000 C 
BRANCH  18  19
ATOM     19  C4  OHN d          40.309  20.627  -1.942  0.00  0.00     0.000 C 
BRANCH  19  20
ATOM     20  C3  OHN d          40.006  19.236  -2.463  0.00  0.00    -0.000 C 
BRANCH  20  21
ATOM     21  C2  OHN d          40.734  19.015  -3.769  0.00  0.00    -0.005 C 
ATOM     22  C1  OHN d          40.441  17.608  -4.212  0.00  0.00     0.005 C 
ENDBRANCH  20  21
ENDBRANCH  19  20
ENDBRANCH  18  19
ENDBRANCH  17  18
ENDBRANCH  16  17
ENDBRANCH  15  16
ENDBRANCH  14  15
ENDBRANCH   1  14
TORSDOF 11
ENDMDL
MODEL 12
REMARK VINA RESULT:      -5.4     10.390     11.447
REMARK  11 active torsions:
REMARK  status: ('A' for Active; 'I' for Inactive)
REMARK    1  A    between atoms: C3_3  and  C2_2 
REMARK    2  A    between atoms: C4_4  and  C3_3 
REMARK    3  A    between atoms: C5_5  and  C4_4 
REMARK    4  A    between atoms: C6_6  and  C5_5 
REMARK    5  A    between atoms: C7_7  and  C6_6 
REMARK    6  A    between atoms: C8_8  and  C7_7 
REMARK    7  A    between atoms: C9_9  and  C8_8 
REMARK    8  A    between atoms: C10_10  and  C9_9 
REMARK    9  A    between atoms: C11_12  and  C10_10 
REMARK   10  A    between atoms: C11_12  and  C12_13 
REMARK       I    between atoms: C12_13  and  N1_15 
REMARK   11  A    between atoms: C13_16  and  N1_15 
ROOT
ATOM      1  C10 OHN d          52.613  13.408  -4.840  0.00  0.00     0.135 C 
ATOM      2  O1  OHN d          53.617  13.929  -4.387  0.00  0.00    -0.297 OA
ENDROOT
BRANCH   1   3
ATOM      3  C11 OHN d          52.485  11.925  -4.955  0.00  0.00     0.181 C 
BRANCH   3   4
ATOM      4  C12 OHN d          52.750  11.270  -3.625  0.00  0.00     0.225 C 
ATOM      5  N1  OHN d          52.543  11.959  -2.510  0.00  0.00    -0.347 N 
ATOM      6  H19 OHN d          52.235  12.920  -2.527  0.00  0.00     0.163 HD
ATOM      7  O2  OHN d          53.151  10.130  -3.628  0.00  0.00    -0.273 OA
BRANCH   5   8
ATOM      8  C13 OHN d          52.782  11.261  -1.280  0.00  0.00     0.186 C 
ATOM      9  C14 OHN d          53.995  11.747  -0.491  0.00  0.00     0.062 C 
ATOM     10  C15 OHN d          53.611  11.741   0.998  0.00  0.00     0.181 C 
ATOM     11  O4  OHN d          52.195  11.746   1.017  0.00  0.00    -0.320 OA
ATOM     12  C16 OHN d          51.701  11.467  -0.290  0.00  0.00     0.281 C 
ATOM     13  O3  OHN d          50.529  11.393  -0.542  0.00  0.00    -0.263 OA
ENDBRANCH   5   8
ENDBRANCH   3   4
ENDBRANCH   1   3
BRANCH   1  14
ATOM     14  C9  OHN d          51.491  14.250  -5.356  0.00  0.00     0.079 C 
BRANCH  14  15
ATOM     15  C8  OHN d          50.836  13.645  -6.574  0.00  0.00     0.007 C 
BRANCH  15  16
ATOM     16  C7  OHN d          49.362  13.991  -6.432  0.00  0.00     0.000 C 
BRANCH  16  17
ATOM     17  C6  OHN d          49.098  14.614  -5.057  0.00  0.00     0.000 C 
BRANCH  17  18
ATOM     18  C5  OHN d          47.850  13.973  -4.469  0.00  0.00     0.000 C 
BRANCH  18  19
ATOM     19  C4  OHN d          47.930  12.470  -4.614  0.00  0.00     0.000 C 
BRANCH  19  20
ATOM     20  C3  OHN d          48.769  11.886  -3.493  0.00  0.00    -0.000 C 
BRANCH  20  21
ATOM     21  C2  OHN d          49.234  10.501  -3.879  0.00  0.00    -0.005 C 
ATOM     22  C1  OHN d          49.051  10.366  -5.366  0.00  0.00     0.005 C 
ENDBRANCH  20  21
ENDBRANCH  19  20
ENDBRANCH  18  19
ENDBRANCH  17  18
ENDBRANCH  16  17
ENDBRANCH  15  16
ENDBRANCH  14  15
ENDBRANCH   1  14
TORSDOF 11
ENDMDL
MODEL 13
REMARK VINA RESULT:      -5.4      9.519     10.710
REMARK  11 active torsions:
REMARK  status: ('A' for Active; 'I' for Inactive)
REMARK    1  A    between atoms: C3_3  and  C2_2 
REMARK    2  A    between atoms: C4_4  and  C3_3 
REMARK    3  A    between atoms: C5_5  and  C4_4 
REMARK    4  A    between atoms: C6_6  and  C5_5 
REMARK    5  A    between atoms: C7_7  and  C6_6 
REMARK    6  A    between atoms: C8_8  and  C7_7 
REMARK    7  A    between atoms: C9_9  and  C8_8 
REMARK    8  A    between atoms: C10_10  and  C9_9 
REMARK    9  A    between atoms: C11_12  and  C10_10 
REMARK   10  A    between atoms: C11_12  and  C12_13 
REMARK       I    between atoms: C12_13  and  N1_15 
REMARK   11  A    between atoms: C13_16  and  N1_15 
ROOT
ATOM      1  C10 OHN d          49.382  10.983  -4.050  0.00  0.00     0.135 C 
ATOM      2  O1  OHN d          48.743  11.484  -3.141  0.00  0.00    -0.297 OA
ENDROOT
BRANCH   1   3
ATOM      3  C11 OHN d          50.875  10.997  -4.058  0.00  0.00     0.181 C 
BRANCH   3   4
ATOM      4  C12 OHN d          51.410  10.652  -2.693  0.00  0.00     0.225 C 
ATOM      5  N1  OHN d          51.653  11.627  -1.826  0.00  0.00    -0.347 N 
ATOM      6  H19 OHN d          51.512  12.598  -2.063  0.00  0.00     0.163 HD
ATOM      7  O2  OHN d          51.604   9.486  -2.441  0.00  0.00    -0.273 OA
BRANCH   5   8
ATOM      8  C13 OHN d          52.128  11.223  -0.534  0.00  0.00     0.186 C 
ATOM      9  C14 OHN d          53.603  11.518  -0.271  0.00  0.00     0.062 C 
ATOM     10  C15 OHN d          53.725  11.999   1.185  0.00  0.00     0.181 C 
ATOM     11  O4  OHN d          52.423  12.421   1.548  0.00  0.00    -0.320 OA
ATOM     12  C16 OHN d          51.489  11.977   0.568  0.00  0.00     0.281 C 
ATOM     13  O3  OHN d          50.309  12.187   0.650  0.00  0.00    -0.263 OA
ENDBRANCH   5   8
ENDBRANCH   3   4
ENDBRANCH   1   3
BRANCH   1  14
ATOM     14  C9  OHN d          48.681  10.386  -5.228  0.00  0.00     0.079 C 
BRANCH  14  15
ATOM     15  C8  OHN d          49.590  10.252  -6.426  0.00  0.00     0.007 C 
BRANCH  15  16
ATOM     16  C7  OHN d          48.733  10.672  -7.610  0.00  0.00     0.000 C 
BRANCH  16  17
ATOM     17  C6  OHN d          48.329  12.144  -7.472  0.00  0.00     0.000 C 
BRANCH  17  18
ATOM     18  C5  OHN d          49.563  13.005  -7.691  0.00  0.00     0.000 C 
BRANCH  18  19
ATOM     19  C4  OHN d          49.686  14.016  -6.572  0.00  0.00     0.000 C 
BRANCH  19  20
ATOM     20  C3  OHN d          48.372  14.119  -5.822  0.00  0.00    -0.000 C 
BRANCH  20  21
ATOM     21  C2  OHN d          48.622  14.679  -4.440  0.00  0.00    -0.005 C 
ATOM     22  C1  OHN d          47.548  15.696  -4.170  0.00  0.00     0.005 C 
ENDBRANCH  20  21
ENDBRANCH  19  20
ENDBRANCH  18  19
ENDBRANCH  17  18
ENDBRANCH  16  17
ENDBRANCH  15  16
ENDBRANCH  14  15
ENDBRANCH   1  14
TORSDOF 11
ENDMDL
MODEL 14
REMARK VINA RESULT:      -5.3     10.081     12.362
REMARK  11 active torsions:
REMARK  status: ('A' for Active; 'I' for Inactive)
REMARK    1  A    between atoms: C3_3  and  C2_2 
REMARK    2  A    between atoms: C4_4  and  C3_3 
REMARK    3  A    between atoms: C5_5  and  C4_4 
REMARK    4  A    between atoms: C6_6  and  C5_5 
REMARK    5  A    between atoms: C7_7  and  C6_6 
REMARK    6  A    between atoms: C8_8  and  C7_7 
REMARK    7  A    between atoms: C9_9  and  C8_8 
REMARK    8  A    between atoms: C10_10  and  C9_9 
REMARK    9  A    between atoms: C11_12  and  C10_10 
REMARK   10  A    between atoms: C11_12  and  C12_13 
REMARK       I    between atoms: C12_13  and  N1_15 
REMARK   11  A    between atoms: C13_16  and  N1_15 
ROOT
ATOM      1  C10 OHN d          48.346  14.118  -4.762  0.00  0.00     0.135 C 
ATOM      2  O1  OHN d          48.464  15.078  -4.021  0.00  0.00    -0.297 OA
ENDROOT
BRANCH   1   3
ATOM      3  C11 OHN d          48.770  14.177  -6.192  0.00  0.00     0.181 C 
BRANCH   3   4
ATOM      4  C12 OHN d          50.258  13.974  -6.308  0.00  0.00     0.225 C 
ATOM      5  N1  OHN d          51.066  14.610  -5.471  0.00  0.00    -0.347 N 
ATOM      6  H19 OHN d          50.715  15.247  -4.771  0.00  0.00     0.163 HD
ATOM      7  O2  OHN d          50.660  13.233  -7.174  0.00  0.00    -0.273 OA
BRANCH   5   8
ATOM      8  C13 OHN d          52.468  14.342  -5.616  0.00  0.00     0.186 C 
ATOM      9  C14 OHN d          53.370  15.570  -5.511  0.00  0.00     0.062 C 
ATOM     10  C15 OHN d          54.619  15.158  -4.713  0.00  0.00     0.181 C 
ATOM     11  O4  OHN d          54.242  13.990  -4.007  0.00  0.00    -0.320 OA
ATOM     12  C16 OHN d          53.004  13.505  -4.519  0.00  0.00     0.281 C 
ATOM     13  O3  OHN d          52.473  12.510  -4.105  0.00  0.00    -0.263 OA
ENDBRANCH   5   8
ENDBRANCH   3   4
ENDBRANCH   1   3
BRANCH   1  14
ATOM     14  C9  OHN d          47.711  12.857  -4.270  0.00  0.00     0.079 C 
BRANCH  14  15
ATOM     15  C8  OHN d          48.714  11.919  -3.644  0.00  0.00     0.007 C 
BRANCH  15  16
ATOM     16  C7  OHN d          48.888  10.804  -4.663  0.00  0.00     0.000 C 
BRANCH  16  17
ATOM     17  C6  OHN d          50.067   9.908  -4.266  0.00  0.00     0.000 C 
BRANCH  17  18
ATOM     18  C5  OHN d          50.312  10.064  -2.774  0.00  0.00     0.000 C 
BRANCH  18  19
ATOM     19  C4  OHN d          51.658   9.477  -2.413  0.00  0.00     0.000 C 
BRANCH  19  20
ATOM     20  C3  OHN d          52.259  10.239  -1.247  0.00  0.00    -0.000 C 
BRANCH  20  21
ATOM     21  C2  OHN d          51.269  11.267  -0.752  0.00  0.00    -0.005 C 
ATOM     22  C1  OHN d          51.229  11.164   0.748  0.00  0.00     0.005 C 
ENDBRANCH  20  21
ENDBRANCH  19  20
ENDBRANCH  18  19
ENDBRANCH  17  18
ENDBRANCH  16  17
ENDBRANCH  15  16
ENDBRANCH  14  15
ENDBRANCH   1  14
TORSDOF 11
ENDMDL
MODEL 15
REMARK VINA RESULT:      -5.3      9.630     10.557
REMARK  11 active torsions:
REMARK  status: ('A' for Active; 'I' for Inactive)
REMARK    1  A    between atoms: C3_3  and  C2_2 
REMARK    2  A    between atoms: C4_4  and  C3_3 
REMARK    3  A    between atoms: C5_5  and  C4_4 
REMARK    4  A    between atoms: C6_6  and  C5_5 
REMARK    5  A    between atoms: C7_7  and  C6_6 
REMARK    6  A    between atoms: C8_8  and  C7_7 
REMARK    7  A    between atoms: C9_9  and  C8_8 
REMARK    8  A    between atoms: C10_10  and  C9_9 
REMARK    9  A    between atoms: C11_12  and  C10_10 
REMARK   10  A    between atoms: C11_12  and  C12_13 
REMARK       I    between atoms: C12_13  and  N1_15 
REMARK   11  A    between atoms: C13_16  and  N1_15 
ROOT
ATOM      1  C10 OHN d          49.592  10.762  -4.268  0.00  0.00     0.135 C 
ATOM      2  O1  OHN d          49.185   9.778  -4.862  0.00  0.00    -0.297 OA
ENDROOT
BRANCH   1   3
ATOM      3  C11 OHN d          51.052  11.024  -4.100  0.00  0.00     0.181 C 
BRANCH   3   4
ATOM      4  C12 OHN d          51.492  10.672  -2.703  0.00  0.00     0.225 C 
ATOM      5  N1  OHN d          51.919  11.634  -1.896  0.00  0.00    -0.347 N 
ATOM      6  H19 OHN d          51.980  12.595  -2.198  0.00  0.00     0.163 HD
ATOM      7  O2  OHN d          51.442   9.511  -2.372  0.00  0.00    -0.273 OA
BRANCH   5   8
ATOM      8  C13 OHN d          52.288  11.232  -0.569  0.00  0.00     0.186 C 
ATOM      9  C14 OHN d          53.718  11.582  -0.166  0.00  0.00     0.062 C 
ATOM     10  C15 OHN d          53.684  12.048   1.300  0.00  0.00     0.181 C 
ATOM     11  O4  OHN d          52.337  12.411   1.544  0.00  0.00    -0.320 OA
ATOM     12  C16 OHN d          51.518  11.943   0.476  0.00  0.00     0.281 C 
ATOM     13  O3  OHN d          50.328  12.103   0.450  0.00  0.00    -0.263 OA
ENDBRANCH   5   8
ENDBRANCH   3   4
ENDBRANCH   1   3
BRANCH   1  14
ATOM     14  C9  OHN d          48.632  11.714  -3.632  0.00  0.00     0.079 C 
BRANCH  14  15
ATOM     15  C8  OHN d          47.770  12.421  -4.650  0.00  0.00     0.007 C 
BRANCH  15  16
ATOM     16  C7  OHN d          47.929  13.899  -4.330  0.00  0.00     0.000 C 
BRANCH  16  17
ATOM     17  C6  OHN d          49.230  14.433  -4.940  0.00  0.00     0.000 C 
BRANCH  17  18
ATOM     18  C5  OHN d          49.215  14.149  -6.434  0.00  0.00     0.000 C 
BRANCH  18  19
ATOM     19  C4  OHN d          50.546  13.570  -6.858  0.00  0.00     0.000 C 
BRANCH  19  20
ATOM     20  C3  OHN d          50.325  12.393  -7.788  0.00  0.00    -0.000 C 
BRANCH  20  21
ATOM     21  C2  OHN d          48.872  12.341  -8.202  0.00  0.00    -0.005 C 
ATOM     22  C1  OHN d          48.424  10.911  -8.083  0.00  0.00     0.005 C 
ENDBRANCH  20  21
ENDBRANCH  19  20
ENDBRANCH  18  19
ENDBRANCH  17  18
ENDBRANCH  16  17
ENDBRANCH  15  16
ENDBRANCH  14  15
ENDBRANCH   1  14
TORSDOF 11
ENDMDL
MODEL 16
REMARK VINA RESULT:      -5.3      8.628     10.415
REMARK  11 active torsions:
REMARK  status: ('A' for Active; 'I' for Inactive)
REMARK    1  A    between atoms: C3_3  and  C2_2 
REMARK    2  A    between atoms: C4_4  and  C3_3 
REMARK    3  A    between atoms: C5_5  and  C4_4 
REMARK    4  A    between atoms: C6_6  and  C5_5 
REMARK    5  A    between atoms: C7_7  and  C6_6 
REMARK    6  A    between atoms: C8_8  and  C7_7 
REMARK    7  A    between atoms: C9_9  and  C8_8 
REMARK    8  A    between atoms: C10_10  and  C9_9 
REMARK    9  A    between atoms: C11_12  and  C10_10 
REMARK   10  A    between atoms: C11_12  and  C12_13 
REMARK       I    between atoms: C12_13  and  N1_15 
REMARK   11  A    between atoms: C13_16  and  N1_15 
ROOT
ATOM      1  C10 OHN d          45.910  11.093  -8.235  0.00  0.00     0.135 C 
ATOM      2  O1  OHN d          46.209   9.918  -8.365  0.00  0.00    -0.297 OA
ENDROOT
BRANCH   1   3
ATOM      3  C11 OHN d          44.727  11.681  -8.929  0.00  0.00     0.181 C 
BRANCH   3   4
ATOM      4  C12 OHN d          44.027  10.633  -9.755  0.00  0.00     0.225 C 
ATOM      5  N1  OHN d          43.154   9.823  -9.170  0.00  0.00    -0.347 N 
ATOM      6  H19 OHN d          42.961   9.873  -8.180  0.00  0.00     0.163 HD
ATOM      7  O2  OHN d          44.297  10.569 -10.931  0.00  0.00    -0.273 OA
BRANCH   5   8
ATOM      8  C13 OHN d          42.499   8.874 -10.023  0.00  0.00     0.186 C 
ATOM      9  C14 OHN d          43.082   7.464  -9.980  0.00  0.00     0.062 C 
ATOM     10  C15 OHN d          41.904   6.475 -10.022  0.00  0.00     0.181 C 
ATOM     11  O4  OHN d          40.774   7.226  -9.617  0.00  0.00    -0.320 OA
ATOM     12  C16 OHN d          41.100   8.613  -9.617  0.00  0.00     0.281 C 
ATOM     13  O3  OHN d          40.308   9.469  -9.330  0.00  0.00    -0.263 OA
ENDBRANCH   5   8
ENDBRANCH   3   4
ENDBRANCH   1   3
BRANCH   1  14
ATOM     14  C9  OHN d          46.765  12.003  -7.414  0.00  0.00     0.079 C 
BRANCH  14  15
ATOM     15  C8  OHN d          48.183  12.073  -7.928  0.00  0.00     0.007 C 
BRANCH  15  16
ATOM     16  C7  OHN d          48.936  12.873  -6.877  0.00  0.00     0.000 C 
BRANCH  16  17
ATOM     17  C6  OHN d          47.949  13.502  -5.887  0.00  0.00     0.000 C 
BRANCH  17  18
ATOM     18  C5  OHN d          48.477  13.286  -4.477  0.00  0.00     0.000 C 
BRANCH  18  19
ATOM     19  C4  OHN d          48.088  11.907  -3.991  0.00  0.00     0.000 C 
BRANCH  19  20
ATOM     20  C3  OHN d          49.246  11.277  -3.243  0.00  0.00    -0.000 C 
BRANCH  20  21
ATOM     21  C2  OHN d          50.110  10.502  -4.211  0.00  0.00    -0.005 C 
ATOM     22  C1  OHN d          49.192   9.670  -5.063  0.00  0.00     0.005 C 
ENDBRANCH  20  21
ENDBRANCH  19  20
ENDBRANCH  18  19
ENDBRANCH  17  18
ENDBRANCH  16  17
ENDBRANCH  15  16
ENDBRANCH  14  15
ENDBRANCH   1  14
TORSDOF 11
ENDMDL
MODEL 17
REMARK VINA RESULT:      -5.3     10.563     11.644
REMARK  11 active torsions:
REMARK  status: ('A' for Active; 'I' for Inactive)
REMARK    1  A    between atoms: C3_3  and  C2_2 
REMARK    2  A    between atoms: C4_4  and  C3_3 
REMARK    3  A    between atoms: C5_5  and  C4_4 
REMARK    4  A    between atoms: C6_6  and  C5_5 
REMARK    5  A    between atoms: C7_7  and  C6_6 
REMARK    6  A    between atoms: C8_8  and  C7_7 
REMARK    7  A    between atoms: C9_9  and  C8_8 
REMARK    8  A    between atoms: C10_10  and  C9_9 
REMARK    9  A    between atoms: C11_12  and  C10_10 
REMARK   10  A    between atoms: C11_12  and  C12_13 
REMARK       I    between atoms: C12_13  and  N1_15 
REMARK   11  A    between atoms: C13_16  and  N1_15 
ROOT
ATOM      1  C10 OHN d          51.845  13.806  -5.244  0.00  0.00     0.135 C 
ATOM      2  O1  OHN d          52.795  14.533  -5.011  0.00  0.00    -0.297 OA
ENDROOT
BRANCH   1   3
ATOM      3  C11 OHN d          52.022  12.345  -5.497  0.00  0.00     0.181 C 
BRANCH   3   4
ATOM      4  C12 OHN d          52.728  11.693  -4.337  0.00  0.00     0.225 C 
ATOM      5  N1  OHN d          52.541  12.170  -3.113  0.00  0.00    -0.347 N 
ATOM      6  H19 OHN d          51.957  12.974  -2.938  0.00  0.00     0.163 HD
ATOM      7  O2  OHN d          53.449  10.752  -4.572  0.00  0.00    -0.273 OA
BRANCH   5   8
ATOM      8  C13 OHN d          53.215  11.478  -2.053  0.00  0.00     0.186 C 
ATOM      9  C14 OHN d          54.503  12.142  -1.570  0.00  0.00     0.062 C 
ATOM     10  C15 OHN d          54.545  12.009  -0.038  0.00  0.00     0.181 C 
ATOM     11  O4  OHN d          53.206  11.759   0.351  0.00  0.00    -0.320 OA
ATOM     12  C16 OHN d          52.427  11.448  -0.800  0.00  0.00     0.281 C 
ATOM     13  O3  OHN d          51.258  11.176  -0.742  0.00  0.00    -0.263 OA
ENDBRANCH   5   8
ENDBRANCH   3   4
ENDBRANCH   1   3
BRANCH   1  14
ATOM     14  C9  OHN d          50.465  14.372  -5.344  0.00  0.00     0.079 C 
BRANCH  14  15
ATOM     15  C8  OHN d          49.679  13.762  -6.479  0.00  0.00     0.007 C 
BRANCH  15  16
ATOM     16  C7  OHN d          48.232  13.806  -6.013  0.00  0.00     0.000 C 
BRANCH  16  17
ATOM     17  C6  OHN d          48.163  13.632  -4.492  0.00  0.00     0.000 C 
BRANCH  17  18
ATOM     18  C5  OHN d          47.862  12.173  -4.186  0.00  0.00     0.000 C 
BRANCH  18  19
ATOM     19  C4  OHN d          48.948  11.603  -3.299  0.00  0.00     0.000 C 
BRANCH  19  20
ATOM     20  C3  OHN d          49.423  10.274  -3.853  0.00  0.00    -0.000 C 
BRANCH  20  21
ATOM     21  C2  OHN d          48.995  10.146  -5.297  0.00  0.00    -0.005 C 
ATOM     22  C1  OHN d          50.009   9.277  -5.989  0.00  0.00     0.005 C 
ENDBRANCH  20  21
ENDBRANCH  19  20
ENDBRANCH  18  19
ENDBRANCH  17  18
ENDBRANCH  16  17
ENDBRANCH  15  16
ENDBRANCH  14  15
ENDBRANCH   1  14
TORSDOF 11
ENDMDL
MODEL 18
REMARK VINA RESULT:      -5.2     10.134     11.030
REMARK  11 active torsions:
REMARK  status: ('A' for Active; 'I' for Inactive)
REMARK    1  A    between atoms: C3_3  and  C2_2 
REMARK    2  A    between atoms: C4_4  and  C3_3 
REMARK    3  A    between atoms: C5_5  and  C4_4 
REMARK    4  A    between atoms: C6_6  and  C5_5 
REMARK    5  A    between atoms: C7_7  and  C6_6 
REMARK    6  A    between atoms: C8_8  and  C7_7 
REMARK    7  A    between atoms: C9_9  and  C8_8 
REMARK    8  A    between atoms: C10_10  and  C9_9 
REMARK    9  A    between atoms: C11_12  and  C10_10 
REMARK   10  A    between atoms: C11_12  and  C12_13 
REMARK       I    between atoms: C12_13  and  N1_15 
REMARK   11  A    between atoms: C13_16  and  N1_15 
ROOT
ATOM      1  C10 OHN d          49.554  11.069  -3.759  0.00  0.00     0.135 C 
ATOM      2  O1  OHN d          49.217  11.692  -2.767  0.00  0.00    -0.297 OA
ENDROOT
BRANCH   1   3
ATOM      3  C11 OHN d          50.922  10.484  -3.889  0.00  0.00     0.181 C 
BRANCH   3   4
ATOM      4  C12 OHN d          51.548  10.305  -2.530  0.00  0.00     0.225 C 
ATOM      5  N1  OHN d          51.827  11.376  -1.798  0.00  0.00    -0.347 N 
ATOM      6  H19 OHN d          51.653  12.311  -2.135  0.00  0.00     0.163 HD
ATOM      7  O2  OHN d          51.777   9.178  -2.160  0.00  0.00    -0.273 OA
BRANCH   5   8
ATOM      8  C13 OHN d          52.388  11.129  -0.502  0.00  0.00     0.186 C 
ATOM      9  C14 OHN d          53.809  11.651  -0.307  0.00  0.00     0.062 C 
ATOM     10  C15 OHN d          53.896  12.238   1.112  0.00  0.00     0.181 C 
ATOM     11  O4  OHN d          52.556  12.487   1.495  0.00  0.00    -0.320 OA
ATOM     12  C16 OHN d          51.673  11.850   0.575  0.00  0.00     0.281 C 
ATOM     13  O3  OHN d          50.478  11.891   0.685  0.00  0.00    -0.263 OA
ENDBRANCH   5   8
ENDBRANCH   3   4
ENDBRANCH   1   3
BRANCH   1  14
ATOM     14  C9  OHN d          48.617  10.922  -4.914  0.00  0.00     0.079 C 
BRANCH  14  15
ATOM     15  C8  OHN d          47.593  12.030  -4.963  0.00  0.00     0.007 C 
BRANCH  15  16
ATOM     16  C7  OHN d          48.046  12.925  -6.106  0.00  0.00     0.000 C 
BRANCH  16  17
ATOM     17  C6  OHN d          48.190  14.371  -5.618  0.00  0.00     0.000 C 
BRANCH  17  18
ATOM     18  C5  OHN d          49.550  14.523  -4.954  0.00  0.00     0.000 C 
BRANCH  18  19
ATOM     19  C4  OHN d          50.634  14.038  -5.891  0.00  0.00     0.000 C 
BRANCH  19  20
ATOM     20  C3  OHN d          51.996  14.422  -5.348  0.00  0.00    -0.000 C 
BRANCH  20  21
ATOM     21  C2  OHN d          52.844  13.181  -5.186  0.00  0.00    -0.005 C 
ATOM     22  C1  OHN d          53.796  13.435  -4.051  0.00  0.00     0.005 C 
ENDBRANCH  20  21
ENDBRANCH  19  20
ENDBRANCH  18  19
ENDBRANCH  17  18
ENDBRANCH  16  17
ENDBRANCH  15  16
ENDBRANCH  14  15
ENDBRANCH   1  14
TORSDOF 11
ENDMDL
MODEL 19
REMARK VINA RESULT:      -5.2      8.609     10.765
REMARK  11 active torsions:
REMARK  status: ('A' for Active; 'I' for Inactive)
REMARK    1  A    between atoms: C3_3  and  C2_2 
REMARK    2  A    between atoms: C4_4  and  C3_3 
REMARK    3  A    between atoms: C5_5  and  C4_4 
REMARK    4  A    between atoms: C6_6  and  C5_5 
REMARK    5  A    between atoms: C7_7  and  C6_6 
REMARK    6  A    between atoms: C8_8  and  C7_7 
REMARK    7  A    between atoms: C9_9  and  C8_8 
REMARK    8  A    between atoms: C10_10  and  C9_9 
REMARK    9  A    between atoms: C11_12  and  C10_10 
REMARK   10  A    between atoms: C11_12  and  C12_13 
REMARK       I    between atoms: C12_13  and  N1_15 
REMARK   11  A    between atoms: C13_16  and  N1_15 
ROOT
ATOM      1  C10 OHN d          49.669   9.001  -6.186  0.00  0.00     0.135 C 
ATOM      2  O1  OHN d          50.884   9.001  -6.287  0.00  0.00    -0.297 OA
ENDROOT
BRANCH   1   3
ATOM      3  C11 OHN d          48.821   8.049  -6.961  0.00  0.00     0.181 C 
BRANCH   3   4
ATOM      4  C12 OHN d          48.019   8.786  -8.002  0.00  0.00     0.225 C 
ATOM      5  N1  OHN d          46.694   8.758  -7.940  0.00  0.00    -0.347 N 
ATOM      6  H19 OHN d          46.205   8.236  -7.227  0.00  0.00     0.163 HD
ATOM      7  O2  OHN d          48.623   9.376  -8.866  0.00  0.00    -0.273 OA
BRANCH   5   8
ATOM      8  C13 OHN d          45.996   9.511  -8.941  0.00  0.00     0.186 C 
ATOM      9  C14 OHN d          44.762   8.821  -9.519  0.00  0.00     0.062 C 
ATOM     10  C15 OHN d          43.674   9.894  -9.696  0.00  0.00     0.181 C 
ATOM     11  O4  OHN d          44.059  10.959  -8.846  0.00  0.00    -0.320 OA
ATOM     12  C16 OHN d          45.398  10.755  -8.405  0.00  0.00     0.281 C 
ATOM     13  O3  OHN d          45.974  11.528  -7.688  0.00  0.00    -0.263 OA
ENDBRANCH   5   8
ENDBRANCH   3   4
ENDBRANCH   1   3
BRANCH   1  14
ATOM     14  C9  OHN d          48.982  10.007  -5.320  0.00  0.00     0.079 C 
BRANCH  14  15
ATOM     15  C8  OHN d          49.717  10.241  -4.023  0.00  0.00     0.007 C 
BRANCH  15  16
ATOM     16  C7  OHN d          49.056  11.471  -3.422  0.00  0.00     0.000 C 
BRANCH  16  17
ATOM     17  C6  OHN d          47.898  11.935  -4.312  0.00  0.00     0.000 C 
BRANCH  17  18
ATOM     18  C5  OHN d          47.954  13.451  -4.427  0.00  0.00     0.000 C 
BRANCH  18  19
ATOM     19  C4  OHN d          48.294  13.844  -5.848  0.00  0.00     0.000 C 
BRANCH  19  20
ATOM     20  C3  OHN d          49.773  14.158  -5.958  0.00  0.00    -0.000 C 
BRANCH  20  21
ATOM     21  C2  OHN d          50.382  13.339  -7.073  0.00  0.00    -0.005 C 
ATOM     22  C1  OHN d          49.247  12.756  -7.870  0.00  0.00     0.005 C 
ENDBRANCH  20  21
ENDBRANCH  19  20
ENDBRANCH  18  19
ENDBRANCH  17  18
ENDBRANCH  16  17
ENDBRANCH  15  16
ENDBRANCH  14  15
ENDBRANCH   1  14
TORSDOF 11
ENDMDL
MODEL 20
REMARK VINA RESULT:      -5.2      9.536     11.217
REMARK  11 active torsions:
REMARK  status: ('A' for Active; 'I' for Inactive)
REMARK    1  A    between atoms: C3_3  and  C2_2 
REMARK    2  A    between atoms: C4_4  and  C3_3 
REMARK    3  A    between atoms: C5_5  and  C4_4 
REMARK    4  A    between atoms: C6_6  and  C5_5 
REMARK    5  A    between atoms: C7_7  and  C6_6 
REMARK    6  A    between atoms: C8_8  and  C7_7 
REMARK    7  A    between atoms: C9_9  and  C8_8 
REMARK    8  A    between atoms: C10_10  and  C9_9 
REMARK    9  A    between atoms: C11_12  and  C10_10 
REMARK   10  A    between atoms: C11_12  and  C12_13 
REMARK       I    between atoms: C12_13  and  N1_15 
REMARK   11  A    between atoms: C13_16  and  N1_15 
ROOT
ATOM      1  C10 OHN d          48.370  14.015  -4.687  0.00  0.00     0.135 C 
ATOM      2  O1  OHN d          48.485  14.941  -3.902  0.00  0.00    -0.297 OA
ENDROOT
BRANCH   1   3
ATOM      3  C11 OHN d          48.781  14.145  -6.116  0.00  0.00     0.181 C 
BRANCH   3   4
ATOM      4  C12 OHN d          50.277  14.018  -6.246  0.00  0.00     0.225 C 
ATOM      5  N1  OHN d          51.039  14.200  -5.175  0.00  0.00    -0.347 N 
ATOM      6  H19 OHN d          50.647  14.446  -4.278  0.00  0.00     0.163 HD
ATOM      7  O2  OHN d          50.727  13.757  -7.336  0.00  0.00    -0.273 OA
BRANCH   5   8
ATOM      8  C13 OHN d          52.450  14.029  -5.365  0.00  0.00     0.186 C 
ATOM      9  C14 OHN d          53.263  15.321  -5.340  0.00  0.00     0.062 C 
ATOM     10  C15 OHN d          54.566  15.033  -4.576  0.00  0.00     0.181 C 
ATOM     11  O4  OHN d          54.302  13.869  -3.815  0.00  0.00    -0.320 OA
ATOM     12  C16 OHN d          53.086  13.276  -4.260  0.00  0.00     0.281 C 
ATOM     13  O3  OHN d          52.644  12.262  -3.790  0.00  0.00    -0.263 OA
ENDBRANCH   5   8
ENDBRANCH   3   4
ENDBRANCH   1   3
BRANCH   1  14
ATOM     14  C9  OHN d          47.752  12.726  -4.250  0.00  0.00     0.079 C 
BRANCH  14  15
ATOM     15  C8  OHN d          48.777  11.749  -3.728  0.00  0.00     0.007 C 
BRANCH  15  16
ATOM     16  C7  OHN d          48.776  10.612  -4.738  0.00  0.00     0.000 C 
BRANCH  16  17
ATOM     17  C6  OHN d          50.186  10.407  -5.302  0.00  0.00     0.000 C 
BRANCH  17  18
ATOM     18  C5  OHN d          50.089  10.285  -6.814  0.00  0.00     0.000 C 
BRANCH  18  19
ATOM     19  C4  OHN d          48.646  10.427  -7.247  0.00  0.00     0.000 C 
BRANCH  19  20
ATOM     20  C3  OHN d          48.563  11.275  -8.501  0.00  0.00    -0.000 C 
BRANCH  20  21
ATOM     21  C2  OHN d          47.113  11.512  -8.856  0.00  0.00    -0.005 C 
ATOM     22  C1  OHN d          46.356  11.655  -7.565  0.00  0.00     0.005 C 
ENDBRANCH  20  21
ENDBRANCH  19  20
ENDBRANCH  18  19
ENDBRANCH  17  18
ENDBRANCH  16  17
ENDBRANCH  15  16
ENDBRANCH  14  15
ENDBRANCH   1  14
TORSDOF 11
ENDMDL
