MODEL 1
REMARK VINA RESULT:      -5.0      0.000      0.000
REMARK  11 active torsions:
REMARK  status: ('A' for Active; 'I' for Inactive)
REMARK    1  A    between atoms: C3_3  and  C2_2 
REMARK    2  A    between atoms: C4_4  and  C3_3 
REMARK    3  A    between atoms: C5_5  and  C4_4 
REMARK    4  A    between atoms: C6_6  and  C5_5 
REMARK    5  A    between atoms: C7_7  and  C6_6 
REMARK    6  A    between atoms: C8_8  and  C7_7 
REMARK    7  A    between atoms: C9_9  and  C8_8 
REMARK    8  A    between atoms: C10_10  and  C9_9 
REMARK    9  A    between atoms: C11_12  and  C10_10 
REMARK   10  A    between atoms: C11_12  and  C12_13 
REMARK       I    between atoms: C12_13  and  N1_15 
REMARK   11  A    between atoms: C13_16  and  N1_15 
ROOT
ATOM      1  C10 OHN d          39.696  21.046  10.138  0.00  0.00     0.135 C 
ATOM      2  O1  OHN d          39.793  21.494   9.009  0.00  0.00    -0.297 OA
ENDROOT
BRANCH   1   3
ATOM      3  C11 OHN d          40.855  20.406  10.829  0.00  0.00     0.181 C 
BRANCH   3   4
ATOM      4  C12 OHN d          41.938  21.421  11.086  0.00  0.00     0.225 C 
ATOM      5  N1  OHN d          41.672  22.710  10.922  0.00  0.00    -0.347 N 
ATOM      6  H19 OHN d          40.768  23.031  10.606  0.00  0.00     0.163 HD
ATOM      7  O2  OHN d          43.022  21.013  11.432  0.00  0.00    -0.273 OA
BRANCH   5   8
ATOM      8  C13 OHN d          42.739  23.621  11.220  0.00  0.00     0.186 C 
ATOM      9  C14 OHN d          43.371  24.289  10.001  0.00  0.00     0.062 C 
ATOM     10  C15 OHN d          43.651  25.756  10.371  0.00  0.00     0.181 C 
ATOM     11  O4  OHN d          42.813  26.026  11.480  0.00  0.00    -0.320 OA
ATOM     12  C16 OHN d          42.282  24.804  11.983  0.00  0.00     0.281 C 
ATOM     13  O3  OHN d          41.554  24.754  12.938  0.00  0.00    -0.263 OA
ENDBRANCH   5   8
ENDBRANCH   3   4
ENDBRANCH   1   3
BRANCH   1  14
ATOM     14  C9  OHN d          38.382  21.070  10.851  0.00  0.00     0.079 C 
BRANCH  14  15
ATOM     15  C8  OHN d          37.505  22.209  10.392  0.00  0.00     0.007 C 
BRANCH  15  16
ATOM     16  C7  OHN d          37.114  22.934  11.671  0.00  0.00     0.000 C 
BRANCH  16  17
ATOM     17  C6  OHN d          35.787  23.674  11.473  0.00  0.00     0.000 C 
BRANCH  17  18
ATOM     18  C5  OHN d          35.644  24.024  10.000  0.00  0.00     0.000 C 
BRANCH  18  19
ATOM     19  C4  OHN d          35.317  25.494   9.853  0.00  0.00     0.000 C 
BRANCH  19  20
ATOM     20  C3  OHN d          35.756  26.248  11.093  0.00  0.00    -0.000 C 
BRANCH  20  21
ATOM     21  C2  OHN d          37.000  27.049  10.784  0.00  0.00    -0.005 C 
ATOM     22  C1  OHN d          38.024  26.705  11.829  0.00  0.00     0.005 C 
ENDBRANCH  20  21
ENDBRANCH  19  20
ENDBRANCH  18  19
ENDBRANCH  17  18
ENDBRANCH  16  17
ENDBRANCH  15  16
ENDBRANCH  14  15
ENDBRANCH   1  14
TORSDOF 11
ENDMDL
MODEL 2
REMARK VINA RESULT:      -5.0      3.179      4.411
REMARK  11 active torsions:
REMARK  status: ('A' for Active; 'I' for Inactive)
REMARK    1  A    between atoms: C3_3  and  C2_2 
REMARK    2  A    between atoms: C4_4  and  C3_3 
REMARK    3  A    between atoms: C5_5  and  C4_4 
REMARK    4  A    between atoms: C6_6  and  C5_5 
REMARK    5  A    between atoms: C7_7  and  C6_6 
REMARK    6  A    between atoms: C8_8  and  C7_7 
REMARK    7  A    between atoms: C9_9  and  C8_8 
REMARK    8  A    between atoms: C10_10  and  C9_9 
REMARK    9  A    between atoms: C11_12  and  C10_10 
REMARK   10  A    between atoms: C11_12  and  C12_13 
REMARK       I    between atoms: C12_13  and  N1_15 
REMARK   11  A    between atoms: C13_16  and  N1_15 
ROOT
ATOM      1  C10 OHN d          37.905  21.658  11.021  0.00  0.00     0.135 C 
ATOM      2  O1  OHN d          38.517  21.277  10.038  0.00  0.00    -0.297 OA
ENDROOT
BRANCH   1   3
ATOM      3  C11 OHN d          37.717  20.779  12.213  0.00  0.00     0.181 C 
BRANCH   3   4
ATOM      4  C12 OHN d          39.046  20.271  12.708  0.00  0.00     0.225 C 
ATOM      5  N1  OHN d          39.590  19.208  12.128  0.00  0.00    -0.347 N 
ATOM      6  H19 OHN d          39.127  18.714  11.379  0.00  0.00     0.163 HD
ATOM      7  O2  OHN d          39.567  20.857  13.627  0.00  0.00    -0.273 OA
BRANCH   5   8
ATOM      8  C13 OHN d          40.872  18.802  12.626  0.00  0.00     0.186 C 
ATOM      9  C14 OHN d          40.940  17.360  13.124  0.00  0.00     0.062 C 
ATOM     10  C15 OHN d          42.291  16.778  12.674  0.00  0.00     0.181 C 
ATOM     11  O4  OHN d          42.719  17.611  11.611  0.00  0.00    -0.320 OA
ATOM     12  C16 OHN d          41.912  18.785  11.573  0.00  0.00     0.281 C 
ATOM     13  O3  OHN d          42.082  19.666  10.774  0.00  0.00    -0.263 OA
ENDBRANCH   5   8
ENDBRANCH   3   4
ENDBRANCH   1   3
BRANCH   1  14
ATOM     14  C9  OHN d          37.268  23.009  11.040  0.00  0.00     0.079 C 
BRANCH  14  15
ATOM     15  C8  OHN d          36.325  23.180  12.206  0.00  0.00     0.007 C 
BRANCH  15  16
ATOM     16  C7  OHN d          35.011  23.620  11.579  0.00  0.00     0.000 C 
BRANCH  16  17
ATOM     17  C6  OHN d          35.250  24.118  10.149  0.00  0.00     0.000 C 
BRANCH  17  18
ATOM     18  C5  OHN d          34.629  25.499  10.009  0.00  0.00     0.000 C 
BRANCH  18  19
ATOM     19  C4  OHN d          35.720  26.542   9.910  0.00  0.00     0.000 C 
BRANCH  19  20
ATOM     20  C3  OHN d          36.257  26.862  11.291  0.00  0.00    -0.000 C 
BRANCH  20  21
ATOM     21  C2  OHN d          37.731  27.183  11.199  0.00  0.00    -0.005 C 
ATOM     22  C1  OHN d          38.434  26.362  12.245  0.00  0.00     0.005 C 
ENDBRANCH  20  21
ENDBRANCH  19  20
ENDBRANCH  18  19
ENDBRANCH  17  18
ENDBRANCH  16  17
ENDBRANCH  15  16
ENDBRANCH  14  15
ENDBRANCH   1  14
TORSDOF 11
ENDMDL
MODEL 3
REMARK VINA RESULT:      -5.0      1.044      1.084
REMARK  11 active torsions:
REMARK  status: ('A' for Active; 'I' for Inactive)
REMARK    1  A    between atoms: C3_3  and  C2_2 
REMARK    2  A    between atoms: C4_4  and  C3_3 
REMARK    3  A    between atoms: C5_5  and  C4_4 
REMARK    4  A    between atoms: C6_6  and  C5_5 
REMARK    5  A    between atoms: C7_7  and  C6_6 
REMARK    6  A    between atoms: C8_8  and  C7_7 
REMARK    7  A    between atoms: C9_9  and  C8_8 
REMARK    8  A    between atoms: C10_10  and  C9_9 
REMARK    9  A    between atoms: C11_12  and  C10_10 
REMARK   10  A    between atoms: C11_12  and  C12_13 
REMARK       I    between atoms: C12_13  and  N1_15 
REMARK   11  A    between atoms: C13_16  and  N1_15 
ROOT
ATOM      1  C10 OHN d          39.773  20.732  11.611  0.00  0.00     0.135 C 
ATOM      2  O1  OHN d          39.978  21.010  12.780  0.00  0.00    -0.297 OA
ENDROOT
BRANCH   1   3
ATOM      3  C11 OHN d          40.892  20.564  10.638  0.00  0.00     0.181 C 
BRANCH   3   4
ATOM      4  C12 OHN d          41.988  21.559  10.921  0.00  0.00     0.225 C 
ATOM      5  N1  OHN d          41.708  22.856  10.897  0.00  0.00    -0.347 N 
ATOM      6  H19 OHN d          40.786  23.198  10.671  0.00  0.00     0.163 HD
ATOM      7  O2  OHN d          43.092  21.129  11.157  0.00  0.00    -0.273 OA
BRANCH   5   8
ATOM      8  C13 OHN d          42.790  23.743  11.211  0.00  0.00     0.186 C 
ATOM      9  C14 OHN d          43.437  24.419  10.004  0.00  0.00     0.062 C 
ATOM     10  C15 OHN d          43.741  25.875  10.396  0.00  0.00     0.181 C 
ATOM     11  O4  OHN d          42.905  26.143  11.507  0.00  0.00    -0.320 OA
ATOM     12  C16 OHN d          42.352  24.922  11.991  0.00  0.00     0.281 C 
ATOM     13  O3  OHN d          41.621  24.870  12.943  0.00  0.00    -0.263 OA
ENDBRANCH   5   8
ENDBRANCH   3   4
ENDBRANCH   1   3
BRANCH   1  14
ATOM     14  C9  OHN d          38.374  20.609  11.098  0.00  0.00     0.079 C 
BRANCH  14  15
ATOM     15  C8  OHN d          38.042  21.676  10.083  0.00  0.00     0.007 C 
BRANCH  15  16
ATOM     16  C7  OHN d          37.232  22.705  10.855  0.00  0.00     0.000 C 
BRANCH  16  17
ATOM     17  C6  OHN d          36.078  23.224   9.991  0.00  0.00     0.000 C 
BRANCH  17  18
ATOM     18  C5  OHN d          35.399  24.367  10.728  0.00  0.00     0.000 C 
BRANCH  18  19
ATOM     19  C4  OHN d          35.132  25.507   9.770  0.00  0.00     0.000 C 
BRANCH  19  20
ATOM     20  C3  OHN d          36.011  26.692  10.118  0.00  0.00    -0.000 C 
BRANCH  20  21
ATOM     21  C2  OHN d          36.824  26.373  11.352  0.00  0.00    -0.005 C 
ATOM     22  C1  OHN d          37.947  27.371  11.417  0.00  0.00     0.005 C 
ENDBRANCH  20  21
ENDBRANCH  19  20
ENDBRANCH  18  19
ENDBRANCH  17  18
ENDBRANCH  16  17
ENDBRANCH  15  16
ENDBRANCH  14  15
ENDBRANCH   1  14
TORSDOF 11
ENDMDL
MODEL 4
REMARK VINA RESULT:      -4.9      2.705      5.751
REMARK  11 active torsions:
REMARK  status: ('A' for Active; 'I' for Inactive)
REMARK    1  A    between atoms: C3_3  and  C2_2 
REMARK    2  A    between atoms: C4_4  and  C3_3 
REMARK    3  A    between atoms: C5_5  and  C4_4 
REMARK    4  A    between atoms: C6_6  and  C5_5 
REMARK    5  A    between atoms: C7_7  and  C6_6 
REMARK    6  A    between atoms: C8_8  and  C7_7 
REMARK    7  A    between atoms: C9_9  and  C8_8 
REMARK    8  A    between atoms: C10_10  and  C9_9 
REMARK    9  A    between atoms: C11_12  and  C10_10 
REMARK   10  A    between atoms: C11_12  and  C12_13 
REMARK       I    between atoms: C12_13  and  N1_15 
REMARK   11  A    between atoms: C13_16  and  N1_15 
ROOT
ATOM      1  C10 OHN d          43.040  23.076  10.762  0.00  0.00     0.135 C 
ATOM      2  O1  OHN d          43.921  22.292  11.071  0.00  0.00    -0.297 OA
ENDROOT
BRANCH   1   3
ATOM      3  C11 OHN d          41.604  22.795  11.058  0.00  0.00     0.181 C 
BRANCH   3   4
ATOM      4  C12 OHN d          41.318  21.322  10.922  0.00  0.00     0.225 C 
ATOM      5  N1  OHN d          41.892  20.470  11.761  0.00  0.00    -0.347 N 
ATOM      6  H19 OHN d          42.536  20.777  12.476  0.00  0.00     0.163 HD
ATOM      7  O2  OHN d          40.571  20.972  10.040  0.00  0.00    -0.273 OA
BRANCH   5   8
ATOM      8  C13 OHN d          41.547  19.087  11.596  0.00  0.00     0.186 C 
ATOM      9  C14 OHN d          42.734  18.127  11.574  0.00  0.00     0.062 C 
ATOM     10  C15 OHN d          42.328  16.872  12.365  0.00  0.00     0.181 C 
ATOM     11  O4  OHN d          41.239  17.278  13.174  0.00  0.00    -0.320 OA
ATOM     12  C16 OHN d          40.774  18.553  12.740  0.00  0.00     0.281 C 
ATOM     13  O3  OHN d          39.842  19.115  13.249  0.00  0.00    -0.263 OA
ENDBRANCH   5   8
ENDBRANCH   3   4
ENDBRANCH   1   3
BRANCH   1  14
ATOM     14  C9  OHN d          43.369  24.328  10.015  0.00  0.00     0.079 C 
BRANCH  14  15
ATOM     15  C8  OHN d          44.124  25.320  10.867  0.00  0.00     0.007 C 
BRANCH  15  16
ATOM     16  C7  OHN d          43.216  26.538  10.937  0.00  0.00     0.000 C 
BRANCH  16  17
ATOM     17  C6  OHN d          43.178  27.087  12.367  0.00  0.00     0.000 C 
BRANCH  17  18
ATOM     18  C5  OHN d          41.725  27.295  12.766  0.00  0.00     0.000 C 
BRANCH  18  19
ATOM     19  C4  OHN d          41.035  25.956  12.903  0.00  0.00     0.000 C 
BRANCH  19  20
ATOM     20  C3  OHN d          39.561  26.098  12.579  0.00  0.00    -0.000 C 
BRANCH  20  21
ATOM     21  C2  OHN d          39.265  27.528  12.188  0.00  0.00    -0.005 C 
ATOM     22  C1  OHN d          37.990  27.518  11.391  0.00  0.00     0.005 C 
ENDBRANCH  20  21
ENDBRANCH  19  20
ENDBRANCH  18  19
ENDBRANCH  17  18
ENDBRANCH  16  17
ENDBRANCH  15  16
ENDBRANCH  14  15
ENDBRANCH   1  14
TORSDOF 11
ENDMDL
MODEL 5
REMARK VINA RESULT:      -4.9      2.351      4.317
REMARK  11 active torsions:
REMARK  status: ('A' for Active; 'I' for Inactive)
REMARK    1  A    between atoms: C3_3  and  C2_2 
REMARK    2  A    between atoms: C4_4  and  C3_3 
REMARK    3  A    between atoms: C5_5  and  C4_4 
REMARK    4  A    between atoms: C6_6  and  C5_5 
REMARK    5  A    between atoms: C7_7  and  C6_6 
REMARK    6  A    between atoms: C8_8  and  C7_7 
REMARK    7  A    between atoms: C9_9  and  C8_8 
REMARK    8  A    between atoms: C10_10  and  C9_9 
REMARK    9  A    between atoms: C11_12  and  C10_10 
REMARK   10  A    between atoms: C11_12  and  C12_13 
REMARK       I    between atoms: C12_13  and  N1_15 
REMARK   11  A    between atoms: C13_16  and  N1_15 
ROOT
ATOM      1  C10 OHN d          39.232  21.451  10.225  0.00  0.00     0.135 C 
ATOM      2  O1  OHN d          39.521  20.603   9.398  0.00  0.00    -0.297 OA
ENDROOT
BRANCH   1   3
ATOM      3  C11 OHN d          40.274  22.113  11.064  0.00  0.00     0.181 C 
BRANCH   3   4
ATOM      4  C12 OHN d          41.004  21.093  11.897  0.00  0.00     0.225 C 
ATOM      5  N1  OHN d          40.612  19.826  11.861  0.00  0.00    -0.347 N 
ATOM      6  H19 OHN d          39.821  19.528  11.309  0.00  0.00     0.163 HD
ATOM      7  O2  OHN d          41.926  21.476  12.577  0.00  0.00    -0.273 OA
BRANCH   5   8
ATOM      8  C13 OHN d          41.375  18.903  12.652  0.00  0.00     0.186 C 
ATOM      9  C14 OHN d          40.556  17.804  13.324  0.00  0.00     0.062 C 
ATOM     10  C15 OHN d          41.366  16.500  13.227  0.00  0.00     0.181 C 
ATOM     11  O4  OHN d          42.295  16.715  12.180  0.00  0.00    -0.320 OA
ATOM     12  C16 OHN d          42.314  18.098  11.839  0.00  0.00     0.281 C 
ATOM     13  O3  OHN d          43.034  18.550  10.990  0.00  0.00    -0.263 OA
ENDBRANCH   5   8
ENDBRANCH   3   4
ENDBRANCH   1   3
BRANCH   1  14
ATOM     14  C9  OHN d          37.802  21.814  10.468  0.00  0.00     0.079 C 
BRANCH  14  15
ATOM     15  C8  OHN d          37.655  22.876  11.531  0.00  0.00     0.007 C 
BRANCH  15  16
ATOM     16  C7  OHN d          36.184  23.259  11.492  0.00  0.00     0.000 C 
BRANCH  16  17
ATOM     17  C6  OHN d          35.812  23.783  10.101  0.00  0.00     0.000 C 
BRANCH  17  18
ATOM     18  C5  OHN d          34.806  24.912  10.263  0.00  0.00     0.000 C 
BRANCH  18  19
ATOM     19  C4  OHN d          35.456  26.231   9.910  0.00  0.00     0.000 C 
BRANCH  19  20
ATOM     20  C3  OHN d          36.019  26.880  11.160  0.00  0.00    -0.000 C 
BRANCH  20  21
ATOM     21  C2  OHN d          37.497  27.137  10.974  0.00  0.00    -0.005 C 
ATOM     22  C1  OHN d          38.210  26.500  12.135  0.00  0.00     0.005 C 
ENDBRANCH  20  21
ENDBRANCH  19  20
ENDBRANCH  18  19
ENDBRANCH  17  18
ENDBRANCH  16  17
ENDBRANCH  15  16
ENDBRANCH  14  15
ENDBRANCH   1  14
TORSDOF 11
ENDMDL
MODEL 6
REMARK VINA RESULT:      -4.9      0.641      1.491
REMARK  11 active torsions:
REMARK  status: ('A' for Active; 'I' for Inactive)
REMARK    1  A    between atoms: C3_3  and  C2_2 
REMARK    2  A    between atoms: C4_4  and  C3_3 
REMARK    3  A    between atoms: C5_5  and  C4_4 
REMARK    4  A    between atoms: C6_6  and  C5_5 
REMARK    5  A    between atoms: C7_7  and  C6_6 
REMARK    6  A    between atoms: C8_8  and  C7_7 
REMARK    7  A    between atoms: C9_9  and  C8_8 
REMARK    8  A    between atoms: C10_10  and  C9_9 
REMARK    9  A    between atoms: C11_12  and  C10_10 
REMARK   10  A    between atoms: C11_12  and  C12_13 
REMARK       I    between atoms: C12_13  and  N1_15 
REMARK   11  A    between atoms: C13_16  and  N1_15 
ROOT
ATOM      1  C10 OHN d          39.646  21.025  10.146  0.00  0.00     0.135 C 
ATOM      2  O1  OHN d          39.711  21.391   8.985  0.00  0.00    -0.297 OA
ENDROOT
BRANCH   1   3
ATOM      3  C11 OHN d          40.800  20.362  10.822  0.00  0.00     0.181 C 
BRANCH   3   4
ATOM      4  C12 OHN d          41.828  21.384  11.232  0.00  0.00     0.225 C 
ATOM      5  N1  OHN d          41.712  22.631  10.793  0.00  0.00    -0.347 N 
ATOM      6  H19 OHN d          40.967  22.911  10.172  0.00  0.00     0.163 HD
ATOM      7  O2  OHN d          42.730  21.020  11.948  0.00  0.00    -0.273 OA
BRANCH   5   8
ATOM      8  C13 OHN d          42.706  23.559  11.252  0.00  0.00     0.186 C 
ATOM      9  C14 OHN d          43.480  24.269  10.144  0.00  0.00     0.062 C 
ATOM     10  C15 OHN d          43.669  25.733  10.579  0.00  0.00     0.181 C 
ATOM     11  O4  OHN d          42.682  25.958  11.568  0.00  0.00    -0.320 OA
ATOM     12  C16 OHN d          42.119  24.713  11.970  0.00  0.00     0.281 C 
ATOM     13  O3  OHN d          41.270  24.623  12.815  0.00  0.00    -0.263 OA
ENDBRANCH   5   8
ENDBRANCH   3   4
ENDBRANCH   1   3
BRANCH   1  14
ATOM     14  C9  OHN d          38.375  21.177  10.917  0.00  0.00     0.079 C 
BRANCH  14  15
ATOM     15  C8  OHN d          37.468  22.228  10.323  0.00  0.00     0.007 C 
BRANCH  15  16
ATOM     16  C7  OHN d          36.879  22.953  11.523  0.00  0.00     0.000 C 
BRANCH  16  17
ATOM     17  C6  OHN d          37.955  23.806  12.203  0.00  0.00     0.000 C 
BRANCH  17  18
ATOM     18  C5  OHN d          37.328  25.126  12.627  0.00  0.00     0.000 C 
BRANCH  18  19
ATOM     19  C4  OHN d          38.123  26.277  12.053  0.00  0.00     0.000 C 
BRANCH  19  20
ATOM     20  C3  OHN d          37.313  26.984  10.984  0.00  0.00    -0.000 C 
BRANCH  20  21
ATOM     21  C2  OHN d          35.869  26.545  11.072  0.00  0.00    -0.005 C 
ATOM     22  C1  OHN d          35.401  26.266   9.670  0.00  0.00     0.005 C 
ENDBRANCH  20  21
ENDBRANCH  19  20
ENDBRANCH  18  19
ENDBRANCH  17  18
ENDBRANCH  16  17
ENDBRANCH  15  16
ENDBRANCH  14  15
ENDBRANCH   1  14
TORSDOF 11
ENDMDL
MODEL 7
REMARK VINA RESULT:      -4.8      2.067      3.244
REMARK  11 active torsions:
REMARK  status: ('A' for Active; 'I' for Inactive)
REMARK    1  A    between atoms: C3_3  and  C2_2 
REMARK    2  A    between atoms: C4_4  and  C3_3 
REMARK    3  A    between atoms: C5_5  and  C4_4 
REMARK    4  A    between atoms: C6_6  and  C5_5 
REMARK    5  A    between atoms: C7_7  and  C6_6 
REMARK    6  A    between atoms: C8_8  and  C7_7 
REMARK    7  A    between atoms: C9_9  and  C8_8 
REMARK    8  A    between atoms: C10_10  and  C9_9 
REMARK    9  A    between atoms: C11_12  and  C10_10 
REMARK   10  A    between atoms: C11_12  and  C12_13 
REMARK       I    between atoms: C12_13  and  N1_15 
REMARK   11  A    between atoms: C13_16  and  N1_15 
ROOT
ATOM      1  C10 OHN d          37.753  21.777  10.566  0.00  0.00     0.135 C 
ATOM      2  O1  OHN d          38.244  21.747   9.451  0.00  0.00    -0.297 OA
ENDROOT
BRANCH   1   3
ATOM      3  C11 OHN d          37.866  20.620  11.502  0.00  0.00     0.181 C 
BRANCH   3   4
ATOM      4  C12 OHN d          39.296  20.431  11.934  0.00  0.00     0.225 C 
ATOM      5  N1  OHN d          40.255  20.419  11.017  0.00  0.00    -0.347 N 
ATOM      6  H19 OHN d          40.051  20.509  10.032  0.00  0.00     0.163 HD
ATOM      7  O2  OHN d          39.515  20.291  13.114  0.00  0.00    -0.273 OA
BRANCH   5   8
ATOM      8  C13 OHN d          41.596  20.271  11.503  0.00  0.00     0.186 C 
ATOM      9  C14 OHN d          42.395  19.145  10.849  0.00  0.00     0.062 C 
ATOM     10  C15 OHN d          43.829  19.660  10.637  0.00  0.00     0.181 C 
ATOM     11  O4  OHN d          43.730  21.071  10.688  0.00  0.00    -0.320 OA
ATOM     12  C16 OHN d          42.448  21.440  11.189  0.00  0.00     0.281 C 
ATOM     13  O3  OHN d          42.115  22.583  11.349  0.00  0.00    -0.263 OA
ENDBRANCH   5   8
ENDBRANCH   3   4
ENDBRANCH   1   3
BRANCH   1  14
ATOM     14  C9  OHN d          36.962  22.965  11.013  0.00  0.00     0.079 C 
BRANCH  14  15
ATOM     15  C8  OHN d          35.930  23.380   9.993  0.00  0.00     0.007 C 
BRANCH  15  16
ATOM     16  C7  OHN d          35.063  24.400  10.715  0.00  0.00     0.000 C 
BRANCH  16  17
ATOM     17  C6  OHN d          34.815  25.613   9.813  0.00  0.00     0.000 C 
BRANCH  17  18
ATOM     18  C5  OHN d          35.959  26.597  10.001  0.00  0.00     0.000 C 
BRANCH  18  19
ATOM     19  C4  OHN d          36.279  26.734  11.473  0.00  0.00     0.000 C 
BRANCH  19  20
ATOM     20  C3  OHN d          37.772  26.583  11.694  0.00  0.00    -0.000 C 
BRANCH  20  21
ATOM     21  C2  OHN d          38.387  27.942  11.933  0.00  0.00    -0.005 C 
ATOM     22  C1  OHN d          39.818  27.720  12.341  0.00  0.00     0.005 C 
ENDBRANCH  20  21
ENDBRANCH  19  20
ENDBRANCH  18  19
ENDBRANCH  17  18
ENDBRANCH  16  17
ENDBRANCH  15  16
ENDBRANCH  14  15
ENDBRANCH   1  14
TORSDOF 11
ENDMDL
MODEL 8
REMARK VINA RESULT:      -4.8      2.402      3.547
REMARK  11 active torsions:
REMARK  status: ('A' for Active; 'I' for Inactive)
REMARK    1  A    between atoms: C3_3  and  C2_2 
REMARK    2  A    between atoms: C4_4  and  C3_3 
REMARK    3  A    between atoms: C5_5  and  C4_4 
REMARK    4  A    between atoms: C6_6  and  C5_5 
REMARK    5  A    between atoms: C7_7  and  C6_6 
REMARK    6  A    between atoms: C8_8  and  C7_7 
REMARK    7  A    between atoms: C9_9  and  C8_8 
REMARK    8  A    between atoms: C10_10  and  C9_9 
REMARK    9  A    between atoms: C11_12  and  C10_10 
REMARK   10  A    between atoms: C11_12  and  C12_13 
REMARK       I    between atoms: C12_13  and  N1_15 
REMARK   11  A    between atoms: C13_16  and  N1_15 
ROOT
ATOM      1  C10 OHN d          37.947  21.693  12.122  0.00  0.00     0.135 C 
ATOM      2  O1  OHN d          38.172  21.341  13.268  0.00  0.00    -0.297 OA
ENDROOT
BRANCH   1   3
ATOM      3  C11 OHN d          38.085  20.750  10.973  0.00  0.00     0.181 C 
BRANCH   3   4
ATOM      4  C12 OHN d          39.499  20.760  10.452  0.00  0.00     0.225 C 
ATOM      5  N1  OHN d          40.495  20.457  11.275  0.00  0.00    -0.347 N 
ATOM      6  H19 OHN d          40.335  20.242  12.248  0.00  0.00     0.163 HD
ATOM      7  O2  OHN d          39.670  21.053   9.293  0.00  0.00    -0.273 OA
BRANCH   5   8
ATOM      8  C13 OHN d          41.810  20.452  10.703  0.00  0.00     0.186 C 
ATOM      9  C14 OHN d          42.675  21.655  11.070  0.00  0.00     0.062 C 
ATOM     10  C15 OHN d          44.104  21.141  11.312  0.00  0.00     0.181 C 
ATOM     11  O4  OHN d          43.964  19.754  11.558  0.00  0.00    -0.320 OA
ATOM     12  C16 OHN d          42.646  19.340  11.208  0.00  0.00     0.281 C 
ATOM     13  O3  OHN d          42.274  18.202  11.304  0.00  0.00    -0.263 OA
ENDBRANCH   5   8
ENDBRANCH   3   4
ENDBRANCH   1   3
BRANCH   1  14
ATOM     14  C9  OHN d          37.579  23.111  11.825  0.00  0.00     0.079 C 
BRANCH  14  15
ATOM     15  C8  OHN d          36.622  23.221  10.663  0.00  0.00     0.007 C 
BRANCH  15  16
ATOM     16  C7  OHN d          35.581  24.233  11.115  0.00  0.00     0.000 C 
BRANCH  16  17
ATOM     17  C6  OHN d          35.034  25.002   9.908  0.00  0.00     0.000 C 
BRANCH  17  18
ATOM     18  C5  OHN d          35.666  26.385   9.890  0.00  0.00     0.000 C 
BRANCH  18  19
ATOM     19  C4  OHN d          36.240  26.703  11.254  0.00  0.00     0.000 C 
BRANCH  19  20
ATOM     20  C3  OHN d          37.634  27.280  11.107  0.00  0.00    -0.000 C 
BRANCH  20  21
ATOM     21  C2  OHN d          38.542  26.681  12.156  0.00  0.00    -0.005 C 
ATOM     22  C1  OHN d          39.688  27.636  12.353  0.00  0.00     0.005 C 
ENDBRANCH  20  21
ENDBRANCH  19  20
ENDBRANCH  18  19
ENDBRANCH  17  18
ENDBRANCH  16  17
ENDBRANCH  15  16
ENDBRANCH  14  15
ENDBRANCH   1  14
TORSDOF 11
ENDMDL
MODEL 9
REMARK VINA RESULT:      -4.8      1.163      1.696
REMARK  11 active torsions:
REMARK  status: ('A' for Active; 'I' for Inactive)
REMARK    1  A    between atoms: C3_3  and  C2_2 
REMARK    2  A    between atoms: C4_4  and  C3_3 
REMARK    3  A    between atoms: C5_5  and  C4_4 
REMARK    4  A    between atoms: C6_6  and  C5_5 
REMARK    5  A    between atoms: C7_7  and  C6_6 
REMARK    6  A    between atoms: C8_8  and  C7_7 
REMARK    7  A    between atoms: C9_9  and  C8_8 
REMARK    8  A    between atoms: C10_10  and  C9_9 
REMARK    9  A    between atoms: C11_12  and  C10_10 
REMARK   10  A    between atoms: C11_12  and  C12_13 
REMARK       I    between atoms: C12_13  and  N1_15 
REMARK   11  A    between atoms: C13_16  and  N1_15 
ROOT
ATOM      1  C10 OHN d          38.917  21.798  11.161  0.00  0.00     0.135 C 
ATOM      2  O1  OHN d          39.080  22.330  12.246  0.00  0.00    -0.297 OA
ENDROOT
BRANCH   1   3
ATOM      3  C11 OHN d          39.955  20.909  10.562  0.00  0.00     0.181 C 
BRANCH   3   4
ATOM      4  C12 OHN d          41.332  21.469  10.809  0.00  0.00     0.225 C 
ATOM      5  N1  OHN d          41.514  22.782  10.773  0.00  0.00    -0.347 N 
ATOM      6  H19 OHN d          40.761  23.419  10.560  0.00  0.00     0.163 HD
ATOM      7  O2  OHN d          42.227  20.687  11.029  0.00  0.00    -0.273 OA
BRANCH   5   8
ATOM      8  C13 OHN d          42.842  23.246  11.053  0.00  0.00     0.186 C 
ATOM      9  C14 OHN d          43.377  24.291  10.075  0.00  0.00     0.062 C 
ATOM     10  C15 OHN d          44.153  25.336  10.895  0.00  0.00     0.181 C 
ATOM     11  O4  OHN d          43.684  25.191  12.223  0.00  0.00    -0.320 OA
ATOM     12  C16 OHN d          42.929  23.987  12.331  0.00  0.00     0.281 C 
ATOM     13  O3  OHN d          42.435  23.618  13.362  0.00  0.00    -0.263 OA
ENDBRANCH   5   8
ENDBRANCH   3   4
ENDBRANCH   1   3
BRANCH   1  14
ATOM     14  C9  OHN d          37.682  22.070  10.364  0.00  0.00     0.079 C 
BRANCH  14  15
ATOM     15  C8  OHN d          36.790  23.094  11.023  0.00  0.00     0.007 C 
BRANCH  15  16
ATOM     16  C7  OHN d          35.853  23.557   9.919  0.00  0.00     0.000 C 
BRANCH  16  17
ATOM     17  C6  OHN d          35.303  24.950  10.244  0.00  0.00     0.000 C 
BRANCH  17  18
ATOM     18  C5  OHN d          36.214  25.600  11.274  0.00  0.00     0.000 C 
BRANCH  18  19
ATOM     19  C4  OHN d          36.817  26.863  10.699  0.00  0.00     0.000 C 
BRANCH  19  20
ATOM     20  C3  OHN d          38.065  27.240  11.474  0.00  0.00    -0.000 C 
BRANCH  20  21
ATOM     21  C2  OHN d          38.424  26.123  12.427  0.00  0.00    -0.005 C 
ATOM     22  C1  OHN d          39.919  26.139  12.590  0.00  0.00     0.005 C 
ENDBRANCH  20  21
ENDBRANCH  19  20
ENDBRANCH  18  19
ENDBRANCH  17  18
ENDBRANCH  16  17
ENDBRANCH  15  16
ENDBRANCH  14  15
ENDBRANCH   1  14
TORSDOF 11
ENDMDL
MODEL 10
REMARK VINA RESULT:      -4.8      2.627      5.253
REMARK  11 active torsions:
REMARK  status: ('A' for Active; 'I' for Inactive)
REMARK    1  A    between atoms: C3_3  and  C2_2 
REMARK    2  A    between atoms: C4_4  and  C3_3 
REMARK    3  A    between atoms: C5_5  and  C4_4 
REMARK    4  A    between atoms: C6_6  and  C5_5 
REMARK    5  A    between atoms: C7_7  and  C6_6 
REMARK    6  A    between atoms: C8_8  and  C7_7 
REMARK    7  A    between atoms: C9_9  and  C8_8 
REMARK    8  A    between atoms: C10_10  and  C9_9 
REMARK    9  A    between atoms: C11_12  and  C10_10 
REMARK   10  A    between atoms: C11_12  and  C12_13 
REMARK       I    between atoms: C12_13  and  N1_15 
REMARK   11  A    between atoms: C13_16  and  N1_15 
ROOT
ATOM      1  C10 OHN d          37.780  21.747  10.848  0.00  0.00     0.135 C 
ATOM      2  O1  OHN d          37.075  22.444  10.139  0.00  0.00    -0.297 OA
ENDROOT
BRANCH   1   3
ATOM      3  C11 OHN d          37.738  21.852  12.337  0.00  0.00     0.181 C 
BRANCH   3   4
ATOM      4  C12 OHN d          37.651  23.295  12.760  0.00  0.00     0.225 C 
ATOM      5  N1  OHN d          38.268  24.221  12.037  0.00  0.00    -0.347 N 
ATOM      6  H19 OHN d          38.816  23.984  11.223  0.00  0.00     0.163 HD
ATOM      7  O2  OHN d          37.019  23.553  13.756  0.00  0.00    -0.273 OA
BRANCH   5   8
ATOM      8  C13 OHN d          38.114  25.577  12.478  0.00  0.00     0.186 C 
ATOM      9  C14 OHN d          39.422  26.323  12.732  0.00  0.00     0.062 C 
ATOM     10  C15 OHN d          39.244  27.759  12.210  0.00  0.00     0.181 C 
ATOM     11  O4  OHN d          38.156  27.694  11.306  0.00  0.00    -0.320 OA
ATOM     12  C16 OHN d          37.491  26.442  11.451  0.00  0.00     0.281 C 
ATOM     13  O3  OHN d          36.520  26.142  10.811  0.00  0.00    -0.263 OA
ENDBRANCH   5   8
ENDBRANCH   3   4
ENDBRANCH   1   3
BRANCH   1  14
ATOM     14  C9  OHN d          38.763  20.799  10.240  0.00  0.00     0.079 C 
BRANCH  14  15
ATOM     15  C8  OHN d          40.032  21.491   9.808  0.00  0.00     0.007 C 
BRANCH  15  16
ATOM     16  C7  OHN d          41.139  20.782  10.573  0.00  0.00     0.000 C 
BRANCH  16  17
ATOM     17  C6  OHN d          42.196  21.794  11.029  0.00  0.00     0.000 C 
BRANCH  17  18
ATOM     18  C5  OHN d          41.516  22.850  11.885  0.00  0.00     0.000 C 
BRANCH  18  19
ATOM     19  C4  OHN d          42.218  24.179  11.712  0.00  0.00     0.000 C 
BRANCH  19  20
ATOM     20  C3  OHN d          43.045  24.165  10.441  0.00  0.00    -0.000 C 
BRANCH  20  21
ATOM     21  C2  OHN d          43.778  25.479  10.300  0.00  0.00    -0.005 C 
ATOM     22  C1  OHN d          43.189  26.429  11.306  0.00  0.00     0.005 C 
ENDBRANCH  20  21
ENDBRANCH  19  20
ENDBRANCH  18  19
ENDBRANCH  17  18
ENDBRANCH  16  17
ENDBRANCH  15  16
ENDBRANCH  14  15
ENDBRANCH   1  14
TORSDOF 11
ENDMDL
MODEL 11
REMARK VINA RESULT:      -4.8      1.467      4.845
REMARK  11 active torsions:
REMARK  status: ('A' for Active; 'I' for Inactive)
REMARK    1  A    between atoms: C3_3  and  C2_2 
REMARK    2  A    between atoms: C4_4  and  C3_3 
REMARK    3  A    between atoms: C5_5  and  C4_4 
REMARK    4  A    between atoms: C6_6  and  C5_5 
REMARK    5  A    between atoms: C7_7  and  C6_6 
REMARK    6  A    between atoms: C8_8  and  C7_7 
REMARK    7  A    between atoms: C9_9  and  C8_8 
REMARK    8  A    between atoms: C10_10  and  C9_9 
REMARK    9  A    between atoms: C11_12  and  C10_10 
REMARK   10  A    between atoms: C11_12  and  C12_13 
REMARK       I    between atoms: C12_13  and  N1_15 
REMARK   11  A    between atoms: C13_16  and  N1_15 
ROOT
ATOM      1  C10 OHN d          43.169  25.290  11.745  0.00  0.00     0.135 C 
ATOM      2  O1  OHN d          43.223  24.761  12.842  0.00  0.00    -0.297 OA
ENDROOT
BRANCH   1   3
ATOM      3  C11 OHN d          43.407  24.517  10.490  0.00  0.00     0.181 C 
BRANCH   3   4
ATOM      4  C12 OHN d          42.974  23.085  10.665  0.00  0.00     0.225 C 
ATOM      5  N1  OHN d          41.688  22.814  10.853  0.00  0.00    -0.347 N 
ATOM      6  H19 OHN d          40.993  23.544  10.907  0.00  0.00     0.163 HD
ATOM      7  O2  OHN d          43.827  22.230  10.632  0.00  0.00    -0.273 OA
BRANCH   5   8
ATOM      8  C13 OHN d          41.343  21.428  10.976  0.00  0.00     0.186 C 
ATOM      9  C14 OHN d          41.017  20.971  12.396  0.00  0.00     0.062 C 
ATOM     10  C15 OHN d          39.826  20.001  12.308  0.00  0.00     0.181 C 
ATOM     11  O4  OHN d          39.219  20.271  11.057  0.00  0.00    -0.320 OA
ATOM     12  C16 OHN d          40.084  21.090  10.276  0.00  0.00     0.281 C 
ATOM     13  O3  OHN d          39.813  21.447   9.161  0.00  0.00    -0.263 OA
ENDBRANCH   5   8
ENDBRANCH   3   4
ENDBRANCH   1   3
BRANCH   1  14
ATOM     14  C9  OHN d          42.918  26.759  11.626  0.00  0.00     0.079 C 
BRANCH  14  15
ATOM     15  C8  OHN d          41.976  27.266  12.690  0.00  0.00     0.007 C 
BRANCH  15  16
ATOM     16  C7  OHN d          40.598  26.811  12.234  0.00  0.00     0.000 C 
BRANCH  16  17
ATOM     17  C6  OHN d          39.599  27.968  12.339  0.00  0.00     0.000 C 
BRANCH  17  18
ATOM     18  C5  OHN d          38.279  27.523  11.729  0.00  0.00     0.000 C 
BRANCH  18  19
ATOM     19  C4  OHN d          38.008  26.080  12.094  0.00  0.00     0.000 C 
BRANCH  19  20
ATOM     20  C3  OHN d          36.735  25.607  11.420  0.00  0.00    -0.000 C 
BRANCH  20  21
ATOM     21  C2  OHN d          36.295  26.628  10.396  0.00  0.00    -0.005 C 
ATOM     22  C1  OHN d          35.088  26.069   9.696  0.00  0.00     0.005 C 
ENDBRANCH  20  21
ENDBRANCH  19  20
ENDBRANCH  18  19
ENDBRANCH  17  18
ENDBRANCH  16  17
ENDBRANCH  15  16
ENDBRANCH  14  15
ENDBRANCH   1  14
TORSDOF 11
ENDMDL
MODEL 12
REMARK VINA RESULT:      -4.8      2.180      5.407
REMARK  11 active torsions:
REMARK  status: ('A' for Active; 'I' for Inactive)
REMARK    1  A    between atoms: C3_3  and  C2_2 
REMARK    2  A    between atoms: C4_4  and  C3_3 
REMARK    3  A    between atoms: C5_5  and  C4_4 
REMARK    4  A    between atoms: C6_6  and  C5_5 
REMARK    5  A    between atoms: C7_7  and  C6_6 
REMARK    6  A    between atoms: C8_8  and  C7_7 
REMARK    7  A    between atoms: C9_9  and  C8_8 
REMARK    8  A    between atoms: C10_10  and  C9_9 
REMARK    9  A    between atoms: C11_12  and  C10_10 
REMARK   10  A    between atoms: C11_12  and  C12_13 
REMARK       I    between atoms: C12_13  and  N1_15 
REMARK   11  A    between atoms: C13_16  and  N1_15 
ROOT
ATOM      1  C10 OHN d          43.801  21.938  11.428  0.00  0.00     0.135 C 
ATOM      2  O1  OHN d          43.631  22.096  12.625  0.00  0.00    -0.297 OA
ENDROOT
BRANCH   1   3
ATOM      3  C11 OHN d          43.733  20.585  10.801  0.00  0.00     0.181 C 
BRANCH   3   4
ATOM      4  C12 OHN d          42.355  19.998  10.966  0.00  0.00     0.225 C 
ATOM      5  N1  OHN d          41.326  20.808  11.176  0.00  0.00    -0.347 N 
ATOM      6  H19 OHN d          41.442  21.808  11.253  0.00  0.00     0.163 HD
ATOM      7  O2  OHN d          42.244  18.796  10.903  0.00  0.00    -0.273 OA
BRANCH   5   8
ATOM      8  C13 OHN d          40.040  20.183  11.288  0.00  0.00     0.186 C 
ATOM      9  C14 OHN d          39.311  20.445  12.604  0.00  0.00     0.062 C 
ATOM     10  C15 OHN d          37.824  20.656  12.275  0.00  0.00     0.181 C 
ATOM     11  O4  OHN d          37.790  20.986  10.898  0.00  0.00    -0.320 OA
ATOM     12  C16 OHN d          39.061  20.715  10.314  0.00  0.00     0.281 C 
ATOM     13  O3  OHN d          39.293  20.890   9.148  0.00  0.00    -0.263 OA
ENDBRANCH   5   8
ENDBRANCH   3   4
ENDBRANCH   1   3
BRANCH   1  14
ATOM     14  C9  OHN d          44.145  23.100  10.553  0.00  0.00     0.079 C 
BRANCH  14  15
ATOM     15  C8  OHN d          43.119  24.203  10.639  0.00  0.00     0.007 C 
BRANCH  15  16
ATOM     16  C7  OHN d          43.925  25.488  10.535  0.00  0.00     0.000 C 
BRANCH  16  17
ATOM     17  C6  OHN d          43.138  26.655  11.141  0.00  0.00     0.000 C 
BRANCH  17  18
ATOM     18  C5  OHN d          42.172  26.100  12.176  0.00  0.00     0.000 C 
BRANCH  18  19
ATOM     19  C4  OHN d          41.179  27.170  12.574  0.00  0.00     0.000 C 
BRANCH  19  20
ATOM     20  C3  OHN d          39.765  26.643  12.428  0.00  0.00    -0.000 C 
BRANCH  20  21
ATOM     21  C2  OHN d          38.860  27.751  11.941  0.00  0.00    -0.005 C 
ATOM     22  C1  OHN d          37.635  27.104  11.357  0.00  0.00     0.005 C 
ENDBRANCH  20  21
ENDBRANCH  19  20
ENDBRANCH  18  19
ENDBRANCH  17  18
ENDBRANCH  16  17
ENDBRANCH  15  16
ENDBRANCH  14  15
ENDBRANCH   1  14
TORSDOF 11
ENDMDL
MODEL 13
REMARK VINA RESULT:      -4.8      1.648      5.051
REMARK  11 active torsions:
REMARK  status: ('A' for Active; 'I' for Inactive)
REMARK    1  A    between atoms: C3_3  and  C2_2 
REMARK    2  A    between atoms: C4_4  and  C3_3 
REMARK    3  A    between atoms: C5_5  and  C4_4 
REMARK    4  A    between atoms: C6_6  and  C5_5 
REMARK    5  A    between atoms: C7_7  and  C6_6 
REMARK    6  A    between atoms: C8_8  and  C7_7 
REMARK    7  A    between atoms: C9_9  and  C8_8 
REMARK    8  A    between atoms: C10_10  and  C9_9 
REMARK    9  A    between atoms: C11_12  and  C10_10 
REMARK   10  A    between atoms: C11_12  and  C12_13 
REMARK       I    between atoms: C12_13  and  N1_15 
REMARK   11  A    between atoms: C13_16  and  N1_15 
ROOT
ATOM      1  C10 OHN d          44.118  25.003  11.002  0.00  0.00     0.135 C 
ATOM      2  O1  OHN d          45.173  24.882  11.601  0.00  0.00    -0.297 OA
ENDROOT
BRANCH   1   3
ATOM      3  C11 OHN d          43.492  23.856  10.280  0.00  0.00     0.181 C 
BRANCH   3   4
ATOM      4  C12 OHN d          42.511  23.144  11.175  0.00  0.00     0.225 C 
ATOM      5  N1  OHN d          41.382  22.679  10.658  0.00  0.00    -0.347 N 
ATOM      6  H19 OHN d          41.148  22.809   9.684  0.00  0.00     0.163 HD
ATOM      7  O2  OHN d          42.795  23.028  12.344  0.00  0.00    -0.273 OA
BRANCH   5   8
ATOM      8  C13 OHN d          40.511  21.981  11.559  0.00  0.00     0.186 C 
ATOM      9  C14 OHN d          39.107  22.567  11.679  0.00  0.00     0.062 C 
ATOM     10  C15 OHN d          38.119  21.389  11.749  0.00  0.00     0.181 C 
ATOM     11  O4  OHN d          38.822  20.281  11.217  0.00  0.00    -0.320 OA
ATOM     12  C16 OHN d          40.205  20.606  11.105  0.00  0.00     0.281 C 
ATOM     13  O3  OHN d          41.026  19.828  10.698  0.00  0.00    -0.263 OA
ENDBRANCH   5   8
ENDBRANCH   3   4
ENDBRANCH   1   3
BRANCH   1  14
ATOM     14  C9  OHN d          43.442  26.334  10.923  0.00  0.00     0.079 C 
BRANCH  14  15
ATOM     15  C8  OHN d          43.049  26.857  12.283  0.00  0.00     0.007 C 
BRANCH  15  16
ATOM     16  C7  OHN d          41.547  27.081  12.191  0.00  0.00     0.000 C 
BRANCH  16  17
ATOM     17  C6  OHN d          40.799  25.893  12.805  0.00  0.00     0.000 C 
BRANCH  17  18
ATOM     18  C5  OHN d          39.306  26.170  12.726  0.00  0.00     0.000 C 
BRANCH  18  19
ATOM     19  C4  OHN d          39.070  27.533  12.114  0.00  0.00     0.000 C 
BRANCH  19  20
ATOM     20  C3  OHN d          37.860  27.489  11.201  0.00  0.00    -0.000 C 
BRANCH  20  21
ATOM     21  C2  OHN d          37.072  26.227  11.469  0.00  0.00    -0.005 C 
ATOM     22  C1  OHN d          35.942  26.187  10.478  0.00  0.00     0.005 C 
ENDBRANCH  20  21
ENDBRANCH  19  20
ENDBRANCH  18  19
ENDBRANCH  17  18
ENDBRANCH  16  17
ENDBRANCH  15  16
ENDBRANCH  14  15
ENDBRANCH   1  14
TORSDOF 11
ENDMDL
MODEL 14
REMARK VINA RESULT:      -4.7      1.669      4.576
REMARK  11 active torsions:
REMARK  status: ('A' for Active; 'I' for Inactive)
REMARK    1  A    between atoms: C3_3  and  C2_2 
REMARK    2  A    between atoms: C4_4  and  C3_3 
REMARK    3  A    between atoms: C5_5  and  C4_4 
REMARK    4  A    between atoms: C6_6  and  C5_5 
REMARK    5  A    between atoms: C7_7  and  C6_6 
REMARK    6  A    between atoms: C8_8  and  C7_7 
REMARK    7  A    between atoms: C9_9  and  C8_8 
REMARK    8  A    between atoms: C10_10  and  C9_9 
REMARK    9  A    between atoms: C11_12  and  C10_10 
REMARK   10  A    between atoms: C11_12  and  C12_13 
REMARK       I    between atoms: C12_13  and  N1_15 
REMARK   11  A    between atoms: C13_16  and  N1_15 
ROOT
ATOM      1  C10 OHN d          41.737  26.828  12.953  0.00  0.00     0.135 C 
ATOM      2  O1  OHN d          41.636  26.050  13.886  0.00  0.00    -0.297 OA
ENDROOT
BRANCH   1   3
ATOM      3  C11 OHN d          43.036  27.040  12.249  0.00  0.00     0.181 C 
BRANCH   3   4
ATOM      4  C12 OHN d          43.317  25.897  11.309  0.00  0.00     0.225 C 
ATOM      5  N1  OHN d          43.168  24.651  11.741  0.00  0.00    -0.347 N 
ATOM      6  H19 OHN d          42.895  24.445  12.690  0.00  0.00     0.163 HD
ATOM      7  O2  OHN d          43.676  26.164  10.187  0.00  0.00    -0.273 OA
BRANCH   5   8
ATOM      8  C13 OHN d          43.418  23.613  10.782  0.00  0.00     0.186 C 
ATOM      9  C14 OHN d          44.740  22.871  10.970  0.00  0.00     0.062 C 
ATOM     10  C15 OHN d          44.476  21.381  10.693  0.00  0.00     0.181 C 
ATOM     11  O4  OHN d          43.077  21.218  10.837  0.00  0.00    -0.320 OA
ATOM     12  C16 OHN d          42.452  22.497  10.886  0.00  0.00     0.281 C 
ATOM     13  O3  OHN d          41.263  22.639  10.984  0.00  0.00    -0.263 OA
ENDBRANCH   5   8
ENDBRANCH   3   4
ENDBRANCH   1   3
BRANCH   1  14
ATOM     14  C9  OHN d          40.564  27.647  12.520  0.00  0.00     0.079 C 
BRANCH  14  15
ATOM     15  C8  OHN d          39.299  26.828  12.427  0.00  0.00     0.007 C 
BRANCH  15  16
ATOM     16  C7  OHN d          38.262  27.782  11.855  0.00  0.00     0.000 C 
BRANCH  16  17
ATOM     17  C6  OHN d          37.297  27.024  10.938  0.00  0.00     0.000 C 
BRANCH  17  18
ATOM     18  C5  OHN d          37.000  25.670  11.564  0.00  0.00     0.000 C 
BRANCH  18  19
ATOM     19  C4  OHN d          35.732  25.099  10.970  0.00  0.00     0.000 C 
BRANCH  19  20
ATOM     20  C3  OHN d          36.002  23.721  10.399  0.00  0.00    -0.000 C 
BRANCH  20  21
ATOM     21  C2  OHN d          37.052  23.025  11.235  0.00  0.00    -0.005 C 
ATOM     22  C1  OHN d          37.723  22.008  10.353  0.00  0.00     0.005 C 
ENDBRANCH  20  21
ENDBRANCH  19  20
ENDBRANCH  18  19
ENDBRANCH  17  18
ENDBRANCH  16  17
ENDBRANCH  15  16
ENDBRANCH  14  15
ENDBRANCH   1  14
TORSDOF 11
ENDMDL
MODEL 15
REMARK VINA RESULT:      -4.7      2.826      4.586
REMARK  11 active torsions:
REMARK  status: ('A' for Active; 'I' for Inactive)
REMARK    1  A    between atoms: C3_3  and  C2_2 
REMARK    2  A    between atoms: C4_4  and  C3_3 
REMARK    3  A    between atoms: C5_5  and  C4_4 
REMARK    4  A    between atoms: C6_6  and  C5_5 
REMARK    5  A    between atoms: C7_7  and  C6_6 
REMARK    6  A    between atoms: C8_8  and  C7_7 
REMARK    7  A    between atoms: C9_9  and  C8_8 
REMARK    8  A    between atoms: C10_10  and  C9_9 
REMARK    9  A    between atoms: C11_12  and  C10_10 
REMARK   10  A    between atoms: C11_12  and  C12_13 
REMARK       I    between atoms: C12_13  and  N1_15 
REMARK   11  A    between atoms: C13_16  and  N1_15 
ROOT
ATOM      1  C10 OHN d          37.788  21.545  10.958  0.00  0.00     0.135 C 
ATOM      2  O1  OHN d          37.361  20.680  11.704  0.00  0.00    -0.297 OA
ENDROOT
BRANCH   1   3
ATOM      3  C11 OHN d          39.103  21.401  10.266  0.00  0.00     0.181 C 
BRANCH   3   4
ATOM      4  C12 OHN d          40.119  20.785  11.191  0.00  0.00     0.225 C 
ATOM      5  N1  OHN d          40.203  19.463  11.275  0.00  0.00    -0.347 N 
ATOM      6  H19 OHN d          39.588  18.856  10.754  0.00  0.00     0.163 HD
ATOM      7  O2  OHN d          40.823  21.529  11.831  0.00  0.00    -0.273 OA
BRANCH   5   8
ATOM      8  C13 OHN d          41.217  18.946  12.148  0.00  0.00     0.186 C 
ATOM      9  C14 OHN d          40.820  17.690  12.920  0.00  0.00     0.062 C 
ATOM     10  C15 OHN d          42.043  16.758  12.945  0.00  0.00     0.181 C 
ATOM     11  O4  OHN d          42.869  17.198  11.883  0.00  0.00    -0.320 OA
ATOM     12  C16 OHN d          42.407  18.462  11.414  0.00  0.00     0.281 C 
ATOM     13  O3  OHN d          42.948  19.065  10.527  0.00  0.00    -0.263 OA
ENDBRANCH   5   8
ENDBRANCH   3   4
ENDBRANCH   1   3
BRANCH   1  14
ATOM     14  C9  OHN d          37.027  22.816  10.759  0.00  0.00     0.079 C 
BRANCH  14  15
ATOM     15  C8  OHN d          36.609  23.442  12.068  0.00  0.00     0.007 C 
BRANCH  15  16
ATOM     16  C7  OHN d          37.876  24.083  12.612  0.00  0.00     0.000 C 
BRANCH  16  17
ATOM     17  C6  OHN d          37.603  25.538  13.007  0.00  0.00     0.000 C 
BRANCH  17  18
ATOM     18  C5  OHN d          38.223  26.448  11.959  0.00  0.00     0.000 C 
BRANCH  18  19
ATOM     19  C4  OHN d          37.139  27.019  11.072  0.00  0.00     0.000 C 
BRANCH  19  20
ATOM     20  C3  OHN d          35.819  27.042  11.818  0.00  0.00    -0.000 C 
BRANCH  20  21
ATOM     21  C2  OHN d          34.728  26.482  10.934  0.00  0.00    -0.005 C 
ATOM     22  C1  OHN d          35.348  26.180   9.598  0.00  0.00     0.005 C 
ENDBRANCH  20  21
ENDBRANCH  19  20
ENDBRANCH  18  19
ENDBRANCH  17  18
ENDBRANCH  16  17
ENDBRANCH  15  16
ENDBRANCH  14  15
ENDBRANCH   1  14
TORSDOF 11
ENDMDL
MODEL 16
REMARK VINA RESULT:      -4.7      1.985      4.856
REMARK  11 active torsions:
REMARK  status: ('A' for Active; 'I' for Inactive)
REMARK    1  A    between atoms: C3_3  and  C2_2 
REMARK    2  A    between atoms: C4_4  and  C3_3 
REMARK    3  A    between atoms: C5_5  and  C4_4 
REMARK    4  A    between atoms: C6_6  and  C5_5 
REMARK    5  A    between atoms: C7_7  and  C6_6 
REMARK    6  A    between atoms: C8_8  and  C7_7 
REMARK    7  A    between atoms: C9_9  and  C8_8 
REMARK    8  A    between atoms: C10_10  and  C9_9 
REMARK    9  A    between atoms: C11_12  and  C10_10 
REMARK   10  A    between atoms: C11_12  and  C12_13 
REMARK       I    between atoms: C12_13  and  N1_15 
REMARK   11  A    between atoms: C13_16  and  N1_15 
ROOT
ATOM      1  C10 OHN d          36.520  23.905  11.137  0.00  0.00     0.135 C 
ATOM      2  O1  OHN d          35.642  23.975  10.294  0.00  0.00    -0.297 OA
ENDROOT
BRANCH   1   3
ATOM      3  C11 OHN d          36.996  22.592  11.663  0.00  0.00     0.181 C 
BRANCH   3   4
ATOM      4  C12 OHN d          38.245  22.158  10.942  0.00  0.00     0.225 C 
ATOM      5  N1  OHN d          39.415  22.245  11.563  0.00  0.00    -0.347 N 
ATOM      6  H19 OHN d          39.496  22.616  12.498  0.00  0.00     0.163 HD
ATOM      7  O2  OHN d          38.131  21.749   9.811  0.00  0.00    -0.273 OA
BRANCH   5   8
ATOM      8  C13 OHN d          40.558  21.782  10.830  0.00  0.00     0.186 C 
ATOM      9  C14 OHN d          41.780  22.694  10.903  0.00  0.00     0.062 C 
ATOM     10  C15 OHN d          43.021  21.794  11.027  0.00  0.00     0.181 C 
ATOM     11  O4  OHN d          42.533  20.547  11.486  0.00  0.00    -0.320 OA
ATOM     12  C16 OHN d          41.112  20.523  11.376  0.00  0.00     0.281 C 
ATOM     13  O3  OHN d          40.450  19.568  11.682  0.00  0.00    -0.263 OA
ENDBRANCH   5   8
ENDBRANCH   3   4
ENDBRANCH   1   3
BRANCH   1  14
ATOM     14  C9  OHN d          37.110  25.148  11.720  0.00  0.00     0.079 C 
BRANCH  14  15
ATOM     15  C8  OHN d          36.678  26.389  10.976  0.00  0.00     0.007 C 
BRANCH  15  16
ATOM     16  C7  OHN d          37.773  27.407  11.256  0.00  0.00     0.000 C 
BRANCH  16  17
ATOM     17  C6  OHN d          38.834  26.799  12.179  0.00  0.00     0.000 C 
BRANCH  17  18
ATOM     18  C5  OHN d          39.923  27.835  12.410  0.00  0.00     0.000 C 
BRANCH  18  19
ATOM     19  C4  OHN d          41.098  27.193  13.116  0.00  0.00     0.000 C 
BRANCH  19  20
ATOM     20  C3  OHN d          41.790  26.218  12.184  0.00  0.00    -0.000 C 
BRANCH  20  21
ATOM     21  C2  OHN d          43.152  26.757  11.809  0.00  0.00    -0.005 C 
ATOM     22  C1  OHN d          43.603  26.016  10.581  0.00  0.00     0.005 C 
ENDBRANCH  20  21
ENDBRANCH  19  20
ENDBRANCH  18  19
ENDBRANCH  17  18
ENDBRANCH  16  17
ENDBRANCH  15  16
ENDBRANCH  14  15
ENDBRANCH   1  14
TORSDOF 11
ENDMDL
MODEL 17
REMARK VINA RESULT:      -4.7      2.505      5.819
REMARK  11 active torsions:
REMARK  status: ('A' for Active; 'I' for Inactive)
REMARK    1  A    between atoms: C3_3  and  C2_2 
REMARK    2  A    between atoms: C4_4  and  C3_3 
REMARK    3  A    between atoms: C5_5  and  C4_4 
REMARK    4  A    between atoms: C6_6  and  C5_5 
REMARK    5  A    between atoms: C7_7  and  C6_6 
REMARK    6  A    between atoms: C8_8  and  C7_7 
REMARK    7  A    between atoms: C9_9  and  C8_8 
REMARK    8  A    between atoms: C10_10  and  C9_9 
REMARK    9  A    between atoms: C11_12  and  C10_10 
REMARK   10  A    between atoms: C11_12  and  C12_13 
REMARK       I    between atoms: C12_13  and  N1_15 
REMARK   11  A    between atoms: C13_16  and  N1_15 
ROOT
ATOM      1  C10 OHN d          39.587  21.183  10.481  0.00  0.00     0.135 C 
ATOM      2  O1  OHN d          39.715  21.267   9.271  0.00  0.00    -0.297 OA
ENDROOT
BRANCH   1   3
ATOM      3  C11 OHN d          38.303  20.745  11.103  0.00  0.00     0.181 C 
BRANCH   3   4
ATOM      4  C12 OHN d          37.574  21.926  11.689  0.00  0.00     0.225 C 
ATOM      5  N1  OHN d          37.445  23.032  10.967  0.00  0.00    -0.347 N 
ATOM      6  H19 OHN d          37.843  23.115  10.043  0.00  0.00     0.163 HD
ATOM      7  O2  OHN d          37.134  21.818  12.809  0.00  0.00    -0.273 OA
BRANCH   5   8
ATOM      8  C13 OHN d          36.709  24.103  11.574  0.00  0.00     0.186 C 
ATOM      9  C14 OHN d          37.561  25.273  12.059  0.00  0.00     0.062 C 
ATOM     10  C15 OHN d          36.801  26.568  11.726  0.00  0.00     0.181 C 
ATOM     11  O4  OHN d          35.876  26.208  10.716  0.00  0.00    -0.320 OA
ATOM     12  C16 OHN d          35.809  24.788  10.619  0.00  0.00     0.281 C 
ATOM     13  O3  OHN d          35.081  24.221   9.849  0.00  0.00    -0.263 OA
ENDBRANCH   5   8
ENDBRANCH   3   4
ENDBRANCH   1   3
BRANCH   1  14
ATOM     14  C9  OHN d          40.707  21.577  11.389  0.00  0.00     0.079 C 
BRANCH  14  15
ATOM     15  C8  OHN d          41.582  22.649  10.785  0.00  0.00     0.007 C 
BRANCH  15  16
ATOM     16  C7  OHN d          43.003  22.214  11.108  0.00  0.00     0.000 C 
BRANCH  16  17
ATOM     17  C6  OHN d          43.977  23.369  10.854  0.00  0.00     0.000 C 
BRANCH  17  18
ATOM     18  C5  OHN d          43.301  24.381   9.943  0.00  0.00     0.000 C 
BRANCH  18  19
ATOM     19  C4  OHN d          43.806  25.771  10.258  0.00  0.00     0.000 C 
BRANCH  19  20
ATOM     20  C3  OHN d          43.575  26.086  11.723  0.00  0.00    -0.000 C 
BRANCH  20  21
ATOM     21  C2  OHN d          42.252  26.798  11.885  0.00  0.00    -0.005 C 
ATOM     22  C1  OHN d          41.342  25.881  12.655  0.00  0.00     0.005 C 
ENDBRANCH  20  21
ENDBRANCH  19  20
ENDBRANCH  18  19
ENDBRANCH  17  18
ENDBRANCH  16  17
ENDBRANCH  15  16
ENDBRANCH  14  15
ENDBRANCH   1  14
TORSDOF 11
ENDMDL
MODEL 18
REMARK VINA RESULT:      -4.7      2.632      5.600
REMARK  11 active torsions:
REMARK  status: ('A' for Active; 'I' for Inactive)
REMARK    1  A    between atoms: C3_3  and  C2_2 
REMARK    2  A    between atoms: C4_4  and  C3_3 
REMARK    3  A    between atoms: C5_5  and  C4_4 
REMARK    4  A    between atoms: C6_6  and  C5_5 
REMARK    5  A    between atoms: C7_7  and  C6_6 
REMARK    6  A    between atoms: C8_8  and  C7_7 
REMARK    7  A    between atoms: C9_9  and  C8_8 
REMARK    8  A    between atoms: C10_10  and  C9_9 
REMARK    9  A    between atoms: C11_12  and  C10_10 
REMARK   10  A    between atoms: C11_12  and  C12_13 
REMARK       I    between atoms: C12_13  and  N1_15 
REMARK   11  A    between atoms: C13_16  and  N1_15 
ROOT
ATOM      1  C10 OHN d          43.989  23.104  10.779  0.00  0.00     0.135 C 
ATOM      2  O1  OHN d          42.852  22.779  10.483  0.00  0.00    -0.297 OA
ENDROOT
BRANCH   1   3
ATOM      3  C11 OHN d          45.114  22.123  10.755  0.00  0.00     0.181 C 
BRANCH   3   4
ATOM      4  C12 OHN d          44.586  20.722  10.588  0.00  0.00     0.225 C 
ATOM      5  N1  OHN d          43.739  20.238  11.487  0.00  0.00    -0.347 N 
ATOM      6  H19 OHN d          43.455  20.773  12.295  0.00  0.00     0.163 HD
ATOM      7  O2  OHN d          44.965  20.087   9.633  0.00  0.00    -0.273 OA
BRANCH   5   8
ATOM      8  C13 OHN d          43.250  18.911  11.247  0.00  0.00     0.186 C 
ATOM      9  C14 OHN d          43.748  17.855  12.230  0.00  0.00     0.062 C 
ATOM     10  C15 OHN d          42.568  16.919  12.541  0.00  0.00     0.181 C 
ATOM     11  O4  OHN d          41.409  17.650  12.185  0.00  0.00    -0.320 OA
ATOM     12  C16 OHN d          41.785  18.801  11.434  0.00  0.00     0.281 C 
ATOM     13  O3  OHN d          40.986  19.582  10.993  0.00  0.00    -0.263 OA
ENDBRANCH   5   8
ENDBRANCH   3   4
ENDBRANCH   1   3
BRANCH   1  14
ATOM     14  C9  OHN d          44.283  24.496  11.238  0.00  0.00     0.079 C 
BRANCH  14  15
ATOM     15  C8  OHN d          43.652  25.537  10.345  0.00  0.00     0.007 C 
BRANCH  15  16
ATOM     16  C7  OHN d          43.222  26.647  11.292  0.00  0.00     0.000 C 
BRANCH  16  17
ATOM     17  C6  OHN d          42.123  26.140  12.233  0.00  0.00     0.000 C 
BRANCH  17  18
ATOM     18  C5  OHN d          41.133  27.269  12.470  0.00  0.00     0.000 C 
BRANCH  18  19
ATOM     19  C4  OHN d          39.720  26.730  12.416  0.00  0.00     0.000 C 
BRANCH  19  20
ATOM     20  C3  OHN d          38.772  27.812  11.937  0.00  0.00    -0.000 C 
BRANCH  20  21
ATOM     21  C2  OHN d          37.623  27.180  11.185  0.00  0.00    -0.005 C 
ATOM     22  C1  OHN d          37.316  25.870  11.856  0.00  0.00     0.005 C 
ENDBRANCH  20  21
ENDBRANCH  19  20
ENDBRANCH  18  19
ENDBRANCH  17  18
ENDBRANCH  16  17
ENDBRANCH  15  16
ENDBRANCH  14  15
ENDBRANCH   1  14
TORSDOF 11
ENDMDL
MODEL 19
REMARK VINA RESULT:      -4.7      4.690      8.277
REMARK  11 active torsions:
REMARK  status: ('A' for Active; 'I' for Inactive)
REMARK    1  A    between atoms: C3_3  and  C2_2 
REMARK    2  A    between atoms: C4_4  and  C3_3 
REMARK    3  A    between atoms: C5_5  and  C4_4 
REMARK    4  A    between atoms: C6_6  and  C5_5 
REMARK    5  A    between atoms: C7_7  and  C6_6 
REMARK    6  A    between atoms: C8_8  and  C7_7 
REMARK    7  A    between atoms: C9_9  and  C8_8 
REMARK    8  A    between atoms: C10_10  and  C9_9 
REMARK    9  A    between atoms: C11_12  and  C10_10 
REMARK   10  A    between atoms: C11_12  and  C12_13 
REMARK       I    between atoms: C12_13  and  N1_15 
REMARK   11  A    between atoms: C13_16  and  N1_15 
ROOT
ATOM      1  C10 OHN d          35.758  23.970  11.154  0.00  0.00     0.135 C 
ATOM      2  O1  OHN d          34.827  23.601  11.849  0.00  0.00    -0.297 OA
ENDROOT
BRANCH   1   3
ATOM      3  C11 OHN d          35.862  25.377  10.667  0.00  0.00     0.181 C 
BRANCH   3   4
ATOM      4  C12 OHN d          34.525  26.065  10.760  0.00  0.00     0.225 C 
ATOM      5  N1  OHN d          33.529  25.653   9.986  0.00  0.00    -0.347 N 
ATOM      6  H19 OHN d          33.647  24.905   9.319  0.00  0.00     0.163 HD
ATOM      7  O2  OHN d          34.415  26.980  11.541  0.00  0.00    -0.273 OA
BRANCH   5   8
ATOM      8  C13 OHN d          32.276  26.330  10.153  0.00  0.00     0.186 C 
ATOM      9  C14 OHN d          31.603  26.764   8.853  0.00  0.00     0.062 C 
ATOM     10  C15 OHN d          30.094  26.508   9.006  0.00  0.00     0.181 C 
ATOM     11  O4  OHN d          29.980  25.569  10.059  0.00  0.00    -0.320 OA
ATOM     12  C16 OHN d          31.230  25.457  10.733  0.00  0.00     0.281 C 
ATOM     13  O3  OHN d          31.397  24.739  11.682  0.00  0.00    -0.263 OA
ENDBRANCH   5   8
ENDBRANCH   3   4
ENDBRANCH   1   3
BRANCH   1  14
ATOM     14  C9  OHN d          36.805  22.997  10.715  0.00  0.00     0.079 C 
BRANCH  14  15
ATOM     15  C8  OHN d          37.209  22.054  11.822  0.00  0.00     0.007 C 
BRANCH  15  16
ATOM     16  C7  OHN d          38.050  20.990  11.134  0.00  0.00     0.000 C 
BRANCH  16  17
ATOM     17  C6  OHN d          38.404  21.436   9.711  0.00  0.00     0.000 C 
BRANCH  17  18
ATOM     18  C5  OHN d          39.879  21.157   9.470  0.00  0.00     0.000 C 
BRANCH  18  19
ATOM     19  C4  OHN d          40.552  20.798  10.777  0.00  0.00     0.000 C 
BRANCH  19  20
ATOM     20  C3  OHN d          41.755  21.693  11.002  0.00  0.00    -0.000 C 
BRANCH  20  21
ATOM     21  C2  OHN d          41.290  23.074  11.403  0.00  0.00    -0.005 C 
ATOM     22  C1  OHN d          40.755  22.976  12.805  0.00  0.00     0.005 C 
ENDBRANCH  20  21
ENDBRANCH  19  20
ENDBRANCH  18  19
ENDBRANCH  17  18
ENDBRANCH  16  17
ENDBRANCH  15  16
ENDBRANCH  14  15
ENDBRANCH   1  14
TORSDOF 11
ENDMDL
MODEL 20
REMARK VINA RESULT:      -4.6      1.986      4.367
REMARK  11 active torsions:
REMARK  status: ('A' for Active; 'I' for Inactive)
REMARK    1  A    between atoms: C3_3  and  C2_2 
REMARK    2  A    between atoms: C4_4  and  C3_3 
REMARK    3  A    between atoms: C5_5  and  C4_4 
REMARK    4  A    between atoms: C6_6  and  C5_5 
REMARK    5  A    between atoms: C7_7  and  C6_6 
REMARK    6  A    between atoms: C8_8  and  C7_7 
REMARK    7  A    between atoms: C9_9  and  C8_8 
REMARK    8  A    between atoms: C10_10  and  C9_9 
REMARK    9  A    between atoms: C11_12  and  C10_10 
REMARK   10  A    between atoms: C11_12  and  C12_13 
REMARK       I    between atoms: C12_13  and  N1_15 
REMARK   11  A    between atoms: C13_16  and  N1_15 
ROOT
ATOM      1  C10 OHN d          38.773  27.068  12.228  0.00  0.00     0.135 C 
ATOM      2  O1  OHN d          39.630  27.931  12.303  0.00  0.00    -0.297 OA
ENDROOT
BRANCH   1   3
ATOM      3  C11 OHN d          38.786  25.873  13.123  0.00  0.00     0.181 C 
BRANCH   3   4
ATOM      4  C12 OHN d          40.176  25.300  13.215  0.00  0.00     0.225 C 
ATOM      5  N1  OHN d          40.868  25.096  12.101  0.00  0.00    -0.347 N 
ATOM      6  H19 OHN d          40.480  25.291  11.189  0.00  0.00     0.163 HD
ATOM      7  O2  OHN d          40.608  25.042  14.313  0.00  0.00    -0.273 OA
BRANCH   5   8
ATOM      8  C13 OHN d          42.197  24.582  12.265  0.00  0.00     0.186 C 
ATOM      9  C14 OHN d          42.511  23.339  11.436  0.00  0.00     0.062 C 
ATOM     10  C15 OHN d          43.947  23.488  10.905  0.00  0.00     0.181 C 
ATOM     11  O4  OHN d          44.233  24.873  10.989  0.00  0.00    -0.320 OA
ATOM     12  C16 OHN d          43.233  25.517  11.774  0.00  0.00     0.281 C 
ATOM     13  O3  OHN d          43.253  26.694  12.016  0.00  0.00    -0.263 OA
ENDBRANCH   5   8
ENDBRANCH   3   4
ENDBRANCH   1   3
BRANCH   1  14
ATOM     14  C9  OHN d          37.704  27.150  11.186  0.00  0.00     0.079 C 
BRANCH  14  15
ATOM     15  C8  OHN d          36.516  26.280  11.516  0.00  0.00     0.007 C 
BRANCH  15  16
ATOM     16  C7  OHN d          35.741  26.175  10.212  0.00  0.00     0.000 C 
BRANCH  16  17
ATOM     17  C6  OHN d          35.247  24.738  10.008  0.00  0.00     0.000 C 
BRANCH  17  18
ATOM     18  C5  OHN d          35.938  23.841  11.023  0.00  0.00     0.000 C 
BRANCH  18  19
ATOM     19  C4  OHN d          36.772  22.804  10.304  0.00  0.00     0.000 C 
BRANCH  19  20
ATOM     20  C3  OHN d          37.947  22.393  11.171  0.00  0.00    -0.000 C 
BRANCH  20  21
ATOM     21  C2  OHN d          38.342  20.971  10.845  0.00  0.00    -0.005 C 
ATOM     22  C1  OHN d          39.139  21.010   9.571  0.00  0.00     0.005 C 
ENDBRANCH  20  21
ENDBRANCH  19  20
ENDBRANCH  18  19
ENDBRANCH  17  18
ENDBRANCH  16  17
ENDBRANCH  15  16
ENDBRANCH  14  15
ENDBRANCH   1  14
TORSDOF 11
ENDMDL
