MODEL 1
REMARK VINA RESULT:      -8.2      0.000      0.000
REMARK  11 active torsions:
REMARK  status: ('A' for Active; 'I' for Inactive)
REMARK    1  A    between atoms: C3_3  and  C2_2 
REMARK    2  A    between atoms: C4_4  and  C3_3 
REMARK    3  A    between atoms: C5_5  and  C4_4 
REMARK    4  A    between atoms: C6_6  and  C5_5 
REMARK    5  A    between atoms: C7_7  and  C6_6 
REMARK    6  A    between atoms: C8_8  and  C7_7 
REMARK    7  A    between atoms: C9_9  and  C8_8 
REMARK    8  A    between atoms: C10_10  and  C9_9 
REMARK    9  A    between atoms: C11_12  and  C10_10 
REMARK   10  A    between atoms: C11_12  and  C12_13 
REMARK       I    between atoms: C12_13  and  N1_15 
REMARK   11  A    between atoms: C13_16  and  N1_15 
ROOT
ATOM      1  C10 OHN d          39.475  17.512  -1.039  0.00  0.00     0.135 C 
ATOM      2  O1  OHN d          39.798  18.244  -1.958  0.00  0.00    -0.297 OA
ENDROOT
BRANCH   1   3
ATOM      3  C11 OHN d          38.676  18.013   0.118  0.00  0.00     0.181 C 
BRANCH   3   4
ATOM      4  C12 OHN d          38.418  19.491  -0.023  0.00  0.00     0.225 C 
ATOM      5  N1  OHN d          39.430  20.340   0.102  0.00  0.00    -0.347 N 
ATOM      6  H19 OHN d          40.366  20.027   0.312  0.00  0.00     0.163 HD
ATOM      7  O2  OHN d          37.285  19.847  -0.242  0.00  0.00    -0.273 OA
BRANCH   5   8
ATOM      8  C13 OHN d          39.118  21.729  -0.080  0.00  0.00     0.186 C 
ATOM      9  C14 OHN d          39.421  22.617   1.124  0.00  0.00     0.062 C 
ATOM     10  C15 OHN d          40.007  23.936   0.590  0.00  0.00     0.181 C 
ATOM     11  O4  OHN d          40.462  23.638  -0.717  0.00  0.00    -0.320 OA
ATOM     12  C16 OHN d          39.955  22.369  -1.120  0.00  0.00     0.281 C 
ATOM     13  O3  OHN d          40.178  21.890  -2.199  0.00  0.00    -0.263 OA
ENDBRANCH   5   8
ENDBRANCH   3   4
ENDBRANCH   1   3
BRANCH   1  14
ATOM     14  C9  OHN d          39.926  16.087  -1.013  0.00  0.00     0.079 C 
BRANCH  14  15
ATOM     15  C8  OHN d          40.238  15.561  -2.393  0.00  0.00     0.007 C 
BRANCH  15  16
ATOM     16  C7  OHN d          41.656  15.023  -2.290  0.00  0.00     0.000 C 
BRANCH  16  17
ATOM     17  C6  OHN d          41.778  14.085  -1.084  0.00  0.00     0.000 C 
BRANCH  17  18
ATOM     18  C5  OHN d          41.587  12.654  -1.565  0.00  0.00     0.000 C 
BRANCH  18  19
ATOM     19  C4  OHN d          40.958  11.826  -0.466  0.00  0.00     0.000 C 
BRANCH  19  20
ATOM     20  C3  OHN d          40.660  12.701   0.736  0.00  0.00    -0.000 C 
BRANCH  20  21
ATOM     21  C2  OHN d          40.663  11.856   1.989  0.00  0.00    -0.005 C 
ATOM     22  C1  OHN d          41.023  10.454   1.582  0.00  0.00     0.005 C 
ENDBRANCH  20  21
ENDBRANCH  19  20
ENDBRANCH  18  19
ENDBRANCH  17  18
ENDBRANCH  16  17
ENDBRANCH  15  16
ENDBRANCH  14  15
ENDBRANCH   1  14
TORSDOF 11
ENDMDL
MODEL 2
REMARK VINA RESULT:      -7.8      0.950      1.328
REMARK  11 active torsions:
REMARK  status: ('A' for Active; 'I' for Inactive)
REMARK    1  A    between atoms: C3_3  and  C2_2 
REMARK    2  A    between atoms: C4_4  and  C3_3 
REMARK    3  A    between atoms: C5_5  and  C4_4 
REMARK    4  A    between atoms: C6_6  and  C5_5 
REMARK    5  A    between atoms: C7_7  and  C6_6 
REMARK    6  A    between atoms: C8_8  and  C7_7 
REMARK    7  A    between atoms: C9_9  and  C8_8 
REMARK    8  A    between atoms: C10_10  and  C9_9 
REMARK    9  A    between atoms: C11_12  and  C10_10 
REMARK   10  A    between atoms: C11_12  and  C12_13 
REMARK       I    between atoms: C12_13  and  N1_15 
REMARK   11  A    between atoms: C13_16  and  N1_15 
ROOT
ATOM      1  C10 OHN d          39.909  17.017  -2.120  0.00  0.00     0.135 C 
ATOM      2  O1  OHN d          40.189  17.928  -2.881  0.00  0.00    -0.297 OA
ENDROOT
BRANCH   1   3
ATOM      3  C11 OHN d          39.385  17.278  -0.747  0.00  0.00     0.181 C 
BRANCH   3   4
ATOM      4  C12 OHN d          38.891  18.696  -0.634  0.00  0.00     0.225 C 
ATOM      5  N1  OHN d          39.772  19.685  -0.556  0.00  0.00    -0.347 N 
ATOM      6  H19 OHN d          40.767  19.513  -0.547  0.00  0.00     0.163 HD
ATOM      7  O2  OHN d          37.696  18.877  -0.613  0.00  0.00    -0.273 OA
BRANCH   5   8
ATOM      8  C13 OHN d          39.231  21.012  -0.486  0.00  0.00     0.186 C 
ATOM      9  C14 OHN d          39.236  21.634   0.908  0.00  0.00     0.062 C 
ATOM     10  C15 OHN d          39.622  23.115   0.752  0.00  0.00     0.181 C 
ATOM     11  O4  OHN d          40.261  23.202  -0.509  0.00  0.00    -0.320 OA
ATOM     12  C16 OHN d          40.041  21.997  -1.237  0.00  0.00     0.281 C 
ATOM     13  O3  OHN d          40.462  21.822  -2.348  0.00  0.00    -0.263 OA
ENDBRANCH   5   8
ENDBRANCH   3   4
ENDBRANCH   1   3
BRANCH   1  14
ATOM     14  C9  OHN d          40.142  15.597  -2.523  0.00  0.00     0.079 C 
BRANCH  14  15
ATOM     15  C8  OHN d          41.573  15.168  -2.306  0.00  0.00     0.007 C 
BRANCH  15  16
ATOM     16  C7  OHN d          41.475  13.921  -1.441  0.00  0.00     0.000 C 
BRANCH  16  17
ATOM     17  C6  OHN d          40.113  13.248  -1.639  0.00  0.00     0.000 C 
BRANCH  17  18
ATOM     18  C5  OHN d          39.719  12.563  -0.339  0.00  0.00     0.000 C 
BRANCH  18  19
ATOM     19  C4  OHN d          40.962  12.118   0.400  0.00  0.00     0.000 C 
BRANCH  19  20
ATOM     20  C3  OHN d          40.844  10.653   0.774  0.00  0.00    -0.000 C 
BRANCH  20  21
ATOM     21  C2  OHN d          41.074  10.490   2.258  0.00  0.00    -0.005 C 
ATOM     22  C1  OHN d          39.728  10.536   2.927  0.00  0.00     0.005 C 
ENDBRANCH  20  21
ENDBRANCH  19  20
ENDBRANCH  18  19
ENDBRANCH  17  18
ENDBRANCH  16  17
ENDBRANCH  15  16
ENDBRANCH  14  15
ENDBRANCH   1  14
TORSDOF 11
ENDMDL
MODEL 3
REMARK VINA RESULT:      -7.8      3.502      8.862
REMARK  11 active torsions:
REMARK  status: ('A' for Active; 'I' for Inactive)
REMARK    1  A    between atoms: C3_3  and  C2_2 
REMARK    2  A    between atoms: C4_4  and  C3_3 
REMARK    3  A    between atoms: C5_5  and  C4_4 
REMARK    4  A    between atoms: C6_6  and  C5_5 
REMARK    5  A    between atoms: C7_7  and  C6_6 
REMARK    6  A    between atoms: C8_8  and  C7_7 
REMARK    7  A    between atoms: C9_9  and  C8_8 
REMARK    8  A    between atoms: C10_10  and  C9_9 
REMARK    9  A    between atoms: C11_12  and  C10_10 
REMARK   10  A    between atoms: C11_12  and  C12_13 
REMARK       I    between atoms: C12_13  and  N1_15 
REMARK   11  A    between atoms: C13_16  and  N1_15 
ROOT
ATOM      1  C10 OHN d          39.392  15.393  -1.277  0.00  0.00     0.135 C 
ATOM      2  O1  OHN d          38.264  14.932  -1.258  0.00  0.00    -0.297 OA
ENDROOT
BRANCH   1   3
ATOM      3  C11 OHN d          40.561  14.582  -1.729  0.00  0.00     0.181 C 
BRANCH   3   4
ATOM      4  C12 OHN d          41.122  13.784  -0.582  0.00  0.00     0.225 C 
ATOM      5  N1  OHN d          40.290  13.192   0.265  0.00  0.00    -0.347 N 
ATOM      6  H19 OHN d          39.288  13.280   0.177  0.00  0.00     0.163 HD
ATOM      7  O2  OHN d          42.324  13.718  -0.475  0.00  0.00    -0.273 OA
BRANCH   5   8
ATOM      8  C13 OHN d          40.893  12.419   1.312  0.00  0.00     0.186 C 
ATOM      9  C14 OHN d          40.168  12.480   2.654  0.00  0.00     0.062 C 
ATOM     10  C15 OHN d          40.198  11.067   3.260  0.00  0.00     0.181 C 
ATOM     11  O4  OHN d          40.453  10.199   2.170  0.00  0.00    -0.320 OA
ATOM     12  C16 OHN d          40.859  10.965   1.039  0.00  0.00     0.281 C 
ATOM     13  O3  OHN d          41.155  10.466  -0.013  0.00  0.00    -0.263 OA
ENDBRANCH   5   8
ENDBRANCH   3   4
ENDBRANCH   1   3
BRANCH   1  14
ATOM     14  C9  OHN d          39.651  16.781  -0.786  0.00  0.00     0.079 C 
BRANCH  14  15
ATOM     15  C8  OHN d          39.805  17.768  -1.917  0.00  0.00     0.007 C 
BRANCH  15  16
ATOM     16  C7  OHN d          39.394  19.105  -1.321  0.00  0.00     0.000 C 
BRANCH  16  17
ATOM     17  C6  OHN d          38.321  18.896  -0.248  0.00  0.00     0.000 C 
BRANCH  17  18
ATOM     18  C5  OHN d          38.400  20.045   0.745  0.00  0.00     0.000 C 
BRANCH  18  19
ATOM     19  C4  OHN d          38.975  21.269   0.066  0.00  0.00     0.000 C 
BRANCH  19  20
ATOM     20  C3  OHN d          39.386  22.293   1.106  0.00  0.00    -0.000 C 
BRANCH  20  21
ATOM     21  C2  OHN d          39.977  23.502   0.419  0.00  0.00    -0.005 C 
ATOM     22  C1  OHN d          40.403  23.070  -0.957  0.00  0.00     0.005 C 
ENDBRANCH  20  21
ENDBRANCH  19  20
ENDBRANCH  18  19
ENDBRANCH  17  18
ENDBRANCH  16  17
ENDBRANCH  15  16
ENDBRANCH  14  15
ENDBRANCH   1  14
TORSDOF 11
ENDMDL
MODEL 4
REMARK VINA RESULT:      -7.7      0.890      1.756
REMARK  11 active torsions:
REMARK  status: ('A' for Active; 'I' for Inactive)
REMARK    1  A    between atoms: C3_3  and  C2_2 
REMARK    2  A    between atoms: C4_4  and  C3_3 
REMARK    3  A    between atoms: C5_5  and  C4_4 
REMARK    4  A    between atoms: C6_6  and  C5_5 
REMARK    5  A    between atoms: C7_7  and  C6_6 
REMARK    6  A    between atoms: C8_8  and  C7_7 
REMARK    7  A    between atoms: C9_9  and  C8_8 
REMARK    8  A    between atoms: C10_10  and  C9_9 
REMARK    9  A    between atoms: C11_12  and  C10_10 
REMARK   10  A    between atoms: C11_12  and  C12_13 
REMARK       I    between atoms: C12_13  and  N1_15 
REMARK   11  A    between atoms: C13_16  and  N1_15 
ROOT
ATOM      1  C10 OHN d          39.485  17.616  -1.305  0.00  0.00     0.135 C 
ATOM      2  O1  OHN d          39.733  18.407  -2.199  0.00  0.00    -0.297 OA
ENDROOT
BRANCH   1   3
ATOM      3  C11 OHN d          38.672  18.010  -0.117  0.00  0.00     0.181 C 
BRANCH   3   4
ATOM      4  C12 OHN d          38.418  19.495  -0.122  0.00  0.00     0.225 C 
ATOM      5  N1  OHN d          39.449  20.329  -0.105  0.00  0.00    -0.347 N 
ATOM      6  H19 OHN d          40.402  19.998  -0.065  0.00  0.00     0.163 HD
ATOM      7  O2  OHN d          37.270  19.870  -0.137  0.00  0.00    -0.273 OA
BRANCH   5   8
ATOM      8  C13 OHN d          39.134  21.728  -0.148  0.00  0.00     0.186 C 
ATOM      9  C14 OHN d          39.474  22.502   1.124  0.00  0.00     0.062 C 
ATOM     10  C15 OHN d          40.045  23.865   0.697  0.00  0.00     0.181 C 
ATOM     11  O4  OHN d          40.461  23.690  -0.645  0.00  0.00    -0.320 OA
ATOM     12  C16 OHN d          39.940  22.463  -1.148  0.00  0.00     0.281 C 
ATOM     13  O3  OHN d          40.130  22.087  -2.273  0.00  0.00    -0.263 OA
ENDBRANCH   5   8
ENDBRANCH   3   4
ENDBRANCH   1   3
BRANCH   1  14
ATOM     14  C9  OHN d          40.044  16.231  -1.344  0.00  0.00     0.079 C 
BRANCH  14  15
ATOM     15  C8  OHN d          39.997  15.634  -2.730  0.00  0.00     0.007 C 
BRANCH  15  16
ATOM     16  C7  OHN d          39.024  14.472  -2.617  0.00  0.00     0.000 C 
BRANCH  16  17
ATOM     17  C6  OHN d          38.597  14.282  -1.158  0.00  0.00     0.000 C 
BRANCH  17  18
ATOM     18  C5  OHN d          38.857  12.836  -0.763  0.00  0.00     0.000 C 
BRANCH  18  19
ATOM     19  C4  OHN d          40.104  12.756   0.090  0.00  0.00     0.000 C 
BRANCH  19  20
ATOM     20  C3  OHN d          40.972  11.601  -0.370  0.00  0.00    -0.000 C 
BRANCH  20  21
ATOM     21  C2  OHN d          41.548  11.914  -1.732  0.00  0.00    -0.005 C 
ATOM     22  C1  OHN d          42.322  13.197  -1.606  0.00  0.00     0.005 C 
ENDBRANCH  20  21
ENDBRANCH  19  20
ENDBRANCH  18  19
ENDBRANCH  17  18
ENDBRANCH  16  17
ENDBRANCH  15  16
ENDBRANCH  14  15
ENDBRANCH   1  14
TORSDOF 11
ENDMDL
MODEL 5
REMARK VINA RESULT:      -7.5      3.115      8.664
REMARK  11 active torsions:
REMARK  status: ('A' for Active; 'I' for Inactive)
REMARK    1  A    between atoms: C3_3  and  C2_2 
REMARK    2  A    between atoms: C4_4  and  C3_3 
REMARK    3  A    between atoms: C5_5  and  C4_4 
REMARK    4  A    between atoms: C6_6  and  C5_5 
REMARK    5  A    between atoms: C7_7  and  C6_6 
REMARK    6  A    between atoms: C8_8  and  C7_7 
REMARK    7  A    between atoms: C9_9  and  C8_8 
REMARK    8  A    between atoms: C10_10  and  C9_9 
REMARK    9  A    between atoms: C11_12  and  C10_10 
REMARK   10  A    between atoms: C11_12  and  C12_13 
REMARK       I    between atoms: C12_13  and  N1_15 
REMARK   11  A    between atoms: C13_16  and  N1_15 
ROOT
ATOM      1  C10 OHN d          40.223  16.677  -2.828  0.00  0.00     0.135 C 
ATOM      2  O1  OHN d          40.720  17.290  -3.756  0.00  0.00    -0.297 OA
ENDROOT
BRANCH   1   3
ATOM      3  C11 OHN d          39.944  15.213  -2.918  0.00  0.00     0.181 C 
BRANCH   3   4
ATOM      4  C12 OHN d          40.773  14.457  -1.912  0.00  0.00     0.225 C 
ATOM      5  N1  OHN d          40.185  13.562  -1.129  0.00  0.00    -0.347 N 
ATOM      6  H19 OHN d          39.191  13.389  -1.170  0.00  0.00     0.163 HD
ATOM      7  O2  OHN d          41.954  14.704  -1.856  0.00  0.00    -0.273 OA
BRANCH   5   8
ATOM      8  C13 OHN d          41.041  12.855  -0.220  0.00  0.00     0.186 C 
ATOM      9  C14 OHN d          40.433  12.583   1.154  0.00  0.00     0.062 C 
ATOM     10  C15 OHN d          40.855  11.164   1.573  0.00  0.00     0.181 C 
ATOM     11  O4  OHN d          41.224  10.515   0.370  0.00  0.00    -0.320 OA
ATOM     12  C16 OHN d          41.339  11.478  -0.674  0.00  0.00     0.281 C 
ATOM     13  O3  OHN d          41.661  11.189  -1.795  0.00  0.00    -0.263 OA
ENDBRANCH   5   8
ENDBRANCH   3   4
ENDBRANCH   1   3
BRANCH   1  14
ATOM     14  C9  OHN d          39.819  17.391  -1.579  0.00  0.00     0.079 C 
BRANCH  14  15
ATOM     15  C8  OHN d          39.836  18.891  -1.748  0.00  0.00     0.007 C 
BRANCH  15  16
ATOM     16  C7  OHN d          38.504  19.358  -1.182  0.00  0.00     0.000 C 
BRANCH  16  17
ATOM     17  C6  OHN d          38.396  18.973   0.297  0.00  0.00     0.000 C 
BRANCH  17  18
ATOM     18  C5  OHN d          38.398  20.246   1.130  0.00  0.00     0.000 C 
BRANCH  18  19
ATOM     19  C4  OHN d          38.835  21.415   0.274  0.00  0.00     0.000 C 
BRANCH  19  20
ATOM     20  C3  OHN d          39.471  22.482   1.143  0.00  0.00    -0.000 C 
BRANCH  20  21
ATOM     21  C2  OHN d          40.032  23.579   0.267  0.00  0.00    -0.005 C 
ATOM     22  C1  OHN d          40.443  22.946  -1.033  0.00  0.00     0.005 C 
ENDBRANCH  20  21
ENDBRANCH  19  20
ENDBRANCH  18  19
ENDBRANCH  17  18
ENDBRANCH  16  17
ENDBRANCH  15  16
ENDBRANCH  14  15
ENDBRANCH   1  14
TORSDOF 11
ENDMDL
MODEL 6
REMARK VINA RESULT:      -7.4      1.935      3.387
REMARK  11 active torsions:
REMARK  status: ('A' for Active; 'I' for Inactive)
REMARK    1  A    between atoms: C3_3  and  C2_2 
REMARK    2  A    between atoms: C4_4  and  C3_3 
REMARK    3  A    between atoms: C5_5  and  C4_4 
REMARK    4  A    between atoms: C6_6  and  C5_5 
REMARK    5  A    between atoms: C7_7  and  C6_6 
REMARK    6  A    between atoms: C8_8  and  C7_7 
REMARK    7  A    between atoms: C9_9  and  C8_8 
REMARK    8  A    between atoms: C10_10  and  C9_9 
REMARK    9  A    between atoms: C11_12  and  C10_10 
REMARK   10  A    between atoms: C11_12  and  C12_13 
REMARK       I    between atoms: C12_13  and  N1_15 
REMARK   11  A    between atoms: C13_16  and  N1_15 
ROOT
ATOM      1  C10 OHN d          38.964  14.293  -2.139  0.00  0.00     0.135 C 
ATOM      2  O1  OHN d          39.028  14.567  -3.324  0.00  0.00    -0.297 OA
ENDROOT
BRANCH   1   3
ATOM      3  C11 OHN d          38.179  15.129  -1.183  0.00  0.00     0.181 C 
BRANCH   3   4
ATOM      4  C12 OHN d          38.940  16.380  -0.831  0.00  0.00     0.225 C 
ATOM      5  N1  OHN d          38.279  17.520  -0.678  0.00  0.00    -0.347 N 
ATOM      6  H19 OHN d          37.281  17.580  -0.815  0.00  0.00     0.163 HD
ATOM      7  O2  OHN d          40.139  16.293  -0.704  0.00  0.00    -0.273 OA
BRANCH   5   8
ATOM      8  C13 OHN d          39.063  18.663  -0.308  0.00  0.00     0.186 C 
ATOM      9  C14 OHN d          39.654  19.443  -1.480  0.00  0.00     0.062 C 
ATOM     10  C15 OHN d          39.539  20.940  -1.143  0.00  0.00     0.181 C 
ATOM     11  O4  OHN d          38.542  21.020  -0.141  0.00  0.00    -0.320 OA
ATOM     12  C16 OHN d          38.259  19.715   0.354  0.00  0.00     0.281 C 
ATOM     13  O3  OHN d          37.461  19.507   1.228  0.00  0.00    -0.263 OA
ENDBRANCH   5   8
ENDBRANCH   3   4
ENDBRANCH   1   3
BRANCH   1  14
ATOM     14  C9  OHN d          39.728  13.131  -1.589  0.00  0.00     0.079 C 
BRANCH  14  15
ATOM     15  C8  OHN d          41.220  13.306  -1.739  0.00  0.00     0.007 C 
BRANCH  15  16
ATOM     16  C7  OHN d          41.779  13.070  -0.345  0.00  0.00     0.000 C 
BRANCH  16  17
ATOM     17  C6  OHN d          40.682  12.527   0.577  0.00  0.00     0.000 C 
BRANCH  17  18
ATOM     18  C5  OHN d          41.015  11.084   0.926  0.00  0.00     0.000 C 
BRANCH  18  19
ATOM     19  C4  OHN d          40.699  10.824   2.382  0.00  0.00     0.000 C 
BRANCH  19  20
ATOM     20  C3  OHN d          40.231  12.105   3.046  0.00  0.00    -0.000 C 
BRANCH  20  21
ATOM     21  C2  OHN d          39.911  11.833   4.499  0.00  0.00    -0.005 C 
ATOM     22  C1  OHN d          38.669  10.986   4.532  0.00  0.00     0.005 C 
ENDBRANCH  20  21
ENDBRANCH  19  20
ENDBRANCH  18  19
ENDBRANCH  17  18
ENDBRANCH  16  17
ENDBRANCH  15  16
ENDBRANCH  14  15
ENDBRANCH   1  14
TORSDOF 11
ENDMDL
MODEL 7
REMARK VINA RESULT:      -7.4      1.634      2.786
REMARK  11 active torsions:
REMARK  status: ('A' for Active; 'I' for Inactive)
REMARK    1  A    between atoms: C3_3  and  C2_2 
REMARK    2  A    between atoms: C4_4  and  C3_3 
REMARK    3  A    between atoms: C5_5  and  C4_4 
REMARK    4  A    between atoms: C6_6  and  C5_5 
REMARK    5  A    between atoms: C7_7  and  C6_6 
REMARK    6  A    between atoms: C8_8  and  C7_7 
REMARK    7  A    between atoms: C9_9  and  C8_8 
REMARK    8  A    between atoms: C10_10  and  C9_9 
REMARK    9  A    between atoms: C11_12  and  C10_10 
REMARK   10  A    between atoms: C11_12  and  C12_13 
REMARK       I    between atoms: C12_13  and  N1_15 
REMARK   11  A    between atoms: C13_16  and  N1_15 
ROOT
ATOM      1  C10 OHN d          40.840  15.471  -2.138  0.00  0.00     0.135 C 
ATOM      2  O1  OHN d          40.542  16.184  -3.080  0.00  0.00    -0.297 OA
ENDROOT
BRANCH   1   3
ATOM      3  C11 OHN d          40.050  15.479  -0.871  0.00  0.00     0.181 C 
BRANCH   3   4
ATOM      4  C12 OHN d          39.215  16.730  -0.780  0.00  0.00     0.225 C 
ATOM      5  N1  OHN d          39.817  17.912  -0.763  0.00  0.00    -0.347 N 
ATOM      6  H19 OHN d          40.823  17.998  -0.785  0.00  0.00     0.163 HD
ATOM      7  O2  OHN d          38.015  16.603  -0.721  0.00  0.00    -0.273 OA
BRANCH   5   8
ATOM      8  C13 OHN d          38.959  19.060  -0.711  0.00  0.00     0.186 C 
ATOM      9  C14 OHN d          38.522  19.472   0.692  0.00  0.00     0.062 C 
ATOM     10  C15 OHN d          38.549  21.009   0.753  0.00  0.00     0.181 C 
ATOM     11  O4  OHN d          39.391  21.408  -0.314  0.00  0.00    -0.320 OA
ATOM     12  C16 OHN d          39.634  20.296  -1.170  0.00  0.00     0.281 C 
ATOM     13  O3  OHN d          40.304  20.372  -2.164  0.00  0.00    -0.263 OA
ENDBRANCH   5   8
ENDBRANCH   3   4
ENDBRANCH   1   3
BRANCH   1  14
ATOM     14  C9  OHN d          42.054  14.602  -2.201  0.00  0.00     0.079 C 
BRANCH  14  15
ATOM     15  C8  OHN d          42.110  13.616  -1.058  0.00  0.00     0.007 C 
BRANCH  15  16
ATOM     16  C7  OHN d          41.414  12.372  -1.587  0.00  0.00     0.000 C 
BRANCH  16  17
ATOM     17  C6  OHN d          41.165  11.382  -0.445  0.00  0.00     0.000 C 
BRANCH  17  18
ATOM     18  C5  OHN d          40.019  11.906   0.407  0.00  0.00     0.000 C 
BRANCH  18  19
ATOM     19  C4  OHN d          40.539  12.310   1.769  0.00  0.00     0.000 C 
BRANCH  19  20
ATOM     20  C3  OHN d          40.337  11.177   2.757  0.00  0.00    -0.000 C 
BRANCH  20  21
ATOM     21  C2  OHN d          39.997  11.746   4.116  0.00  0.00    -0.005 C 
ATOM     22  C1  OHN d          38.695  11.129   4.546  0.00  0.00     0.005 C 
ENDBRANCH  20  21
ENDBRANCH  19  20
ENDBRANCH  18  19
ENDBRANCH  17  18
ENDBRANCH  16  17
ENDBRANCH  15  16
ENDBRANCH  14  15
ENDBRANCH   1  14
TORSDOF 11
ENDMDL
MODEL 8
REMARK VINA RESULT:      -7.4      2.413      4.462
REMARK  11 active torsions:
REMARK  status: ('A' for Active; 'I' for Inactive)
REMARK    1  A    between atoms: C3_3  and  C2_2 
REMARK    2  A    between atoms: C4_4  and  C3_3 
REMARK    3  A    between atoms: C5_5  and  C4_4 
REMARK    4  A    between atoms: C6_6  and  C5_5 
REMARK    5  A    between atoms: C7_7  and  C6_6 
REMARK    6  A    between atoms: C8_8  and  C7_7 
REMARK    7  A    between atoms: C9_9  and  C8_8 
REMARK    8  A    between atoms: C10_10  and  C9_9 
REMARK    9  A    between atoms: C11_12  and  C10_10 
REMARK   10  A    between atoms: C11_12  and  C12_13 
REMARK       I    between atoms: C12_13  and  N1_15 
REMARK   11  A    between atoms: C13_16  and  N1_15 
ROOT
ATOM      1  C10 OHN d          41.592  13.254  -1.499  0.00  0.00     0.135 C 
ATOM      2  O1  OHN d          41.916  12.252  -2.114  0.00  0.00    -0.297 OA
ENDROOT
BRANCH   1   3
ATOM      3  C11 OHN d          41.904  14.621  -2.013  0.00  0.00     0.181 C 
BRANCH   3   4
ATOM      4  C12 OHN d          40.666  15.479  -2.006  0.00  0.00     0.225 C 
ATOM      5  N1  OHN d          40.568  16.470  -1.128  0.00  0.00    -0.347 N 
ATOM      6  H19 OHN d          41.291  16.651  -0.447  0.00  0.00     0.163 HD
ATOM      7  O2  OHN d          39.798  15.224  -2.807  0.00  0.00    -0.273 OA
BRANCH   5   8
ATOM      8  C13 OHN d          39.379  17.268  -1.202  0.00  0.00     0.186 C 
ATOM      9  C14 OHN d          38.775  17.646   0.148  0.00  0.00     0.062 C 
ATOM     10  C15 OHN d          38.292  19.103   0.046  0.00  0.00     0.181 C 
ATOM     11  O4  OHN d          38.997  19.653  -1.052  0.00  0.00    -0.320 OA
ATOM     12  C16 OHN d          39.626  18.606  -1.784  0.00  0.00     0.281 C 
ATOM     13  O3  OHN d          40.273  18.803  -2.778  0.00  0.00    -0.263 OA
ENDBRANCH   5   8
ENDBRANCH   3   4
ENDBRANCH   1   3
BRANCH   1  14
ATOM     14  C9  OHN d          40.920  13.142  -0.169  0.00  0.00     0.079 C 
BRANCH  14  15
ATOM     15  C8  OHN d          39.562  12.491  -0.268  0.00  0.00     0.007 C 
BRANCH  15  16
ATOM     16  C7  OHN d          39.572  11.412   0.803  0.00  0.00     0.000 C 
BRANCH  16  17
ATOM     17  C6  OHN d          40.775  10.483   0.605  0.00  0.00     0.000 C 
BRANCH  17  18
ATOM     18  C5  OHN d          41.423  10.238   1.959  0.00  0.00     0.000 C 
BRANCH  18  19
ATOM     19  C4  OHN d          40.420  10.498   3.061  0.00  0.00     0.000 C 
BRANCH  19  20
ATOM     20  C3  OHN d          40.756  11.795   3.770  0.00  0.00    -0.000 C 
BRANCH  20  21
ATOM     21  C2  OHN d          39.547  12.280   4.537  0.00  0.00    -0.005 C 
ATOM     22  C1  OHN d          38.549  11.155   4.555  0.00  0.00     0.005 C 
ENDBRANCH  20  21
ENDBRANCH  19  20
ENDBRANCH  18  19
ENDBRANCH  17  18
ENDBRANCH  16  17
ENDBRANCH  15  16
ENDBRANCH  14  15
ENDBRANCH   1  14
TORSDOF 11
ENDMDL
MODEL 9
REMARK VINA RESULT:      -7.3      3.717      9.023
REMARK  11 active torsions:
REMARK  status: ('A' for Active; 'I' for Inactive)
REMARK    1  A    between atoms: C3_3  and  C2_2 
REMARK    2  A    between atoms: C4_4  and  C3_3 
REMARK    3  A    between atoms: C5_5  and  C4_4 
REMARK    4  A    between atoms: C6_6  and  C5_5 
REMARK    5  A    between atoms: C7_7  and  C6_6 
REMARK    6  A    between atoms: C8_8  and  C7_7 
REMARK    7  A    between atoms: C9_9  and  C8_8 
REMARK    8  A    between atoms: C10_10  and  C9_9 
REMARK    9  A    between atoms: C11_12  and  C10_10 
REMARK   10  A    between atoms: C11_12  and  C12_13 
REMARK       I    between atoms: C12_13  and  N1_15 
REMARK   11  A    between atoms: C13_16  and  N1_15 
ROOT
ATOM      1  C10 OHN d          39.522  14.917  -1.681  0.00  0.00     0.135 C 
ATOM      2  O1  OHN d          38.473  14.834  -1.067  0.00  0.00    -0.297 OA
ENDROOT
BRANCH   1   3
ATOM      3  C11 OHN d          40.412  13.734  -1.873  0.00  0.00     0.181 C 
BRANCH   3   4
ATOM      4  C12 OHN d          40.971  13.278  -0.550  0.00  0.00     0.225 C 
ATOM      5  N1  OHN d          40.161  12.713   0.336  0.00  0.00    -0.347 N 
ATOM      6  H19 OHN d          39.173  12.601   0.159  0.00  0.00     0.163 HD
ATOM      7  O2  OHN d          42.149  13.451  -0.346  0.00  0.00    -0.273 OA
BRANCH   5   8
ATOM      8  C13 OHN d          40.768  12.270   1.558  0.00  0.00     0.186 C 
ATOM      9  C14 OHN d          39.988  12.618   2.824  0.00  0.00     0.062 C 
ATOM     10  C15 OHN d          40.078  11.407   3.769  0.00  0.00     0.181 C 
ATOM     11  O4  OHN d          40.425  10.313   2.940  0.00  0.00    -0.320 OA
ATOM     12  C16 OHN d          40.829  10.795   1.661  0.00  0.00     0.281 C 
ATOM     13  O3  OHN d          41.195  10.069   0.777  0.00  0.00    -0.263 OA
ENDBRANCH   5   8
ENDBRANCH   3   4
ENDBRANCH   1   3
BRANCH   1  14
ATOM     14  C9  OHN d          39.983  16.234  -2.216  0.00  0.00     0.079 C 
BRANCH  14  15
ATOM     15  C8  OHN d          39.783  17.355  -1.225  0.00  0.00     0.007 C 
BRANCH  15  16
ATOM     16  C7  OHN d          39.870  18.626  -2.056  0.00  0.00     0.000 C 
BRANCH  16  17
ATOM     17  C6  OHN d          39.529  19.845  -1.193  0.00  0.00     0.000 C 
BRANCH  17  18
ATOM     18  C5  OHN d          40.186  21.071  -1.808  0.00  0.00     0.000 C 
BRANCH  18  19
ATOM     19  C4  OHN d          40.833  21.903  -0.723  0.00  0.00     0.000 C 
BRANCH  19  20
ATOM     20  C3  OHN d          40.384  23.346  -0.841  0.00  0.00    -0.000 C 
BRANCH  20  21
ATOM     21  C2  OHN d          39.554  23.718   0.366  0.00  0.00    -0.005 C 
ATOM     22  C1  OHN d          39.798  22.670   1.416  0.00  0.00     0.005 C 
ENDBRANCH  20  21
ENDBRANCH  19  20
ENDBRANCH  18  19
ENDBRANCH  17  18
ENDBRANCH  16  17
ENDBRANCH  15  16
ENDBRANCH  14  15
ENDBRANCH   1  14
TORSDOF 11
ENDMDL
MODEL 10
REMARK VINA RESULT:      -7.2      3.407      8.842
REMARK  11 active torsions:
REMARK  status: ('A' for Active; 'I' for Inactive)
REMARK    1  A    between atoms: C3_3  and  C2_2 
REMARK    2  A    between atoms: C4_4  and  C3_3 
REMARK    3  A    between atoms: C5_5  and  C4_4 
REMARK    4  A    between atoms: C6_6  and  C5_5 
REMARK    5  A    between atoms: C7_7  and  C6_6 
REMARK    6  A    between atoms: C8_8  and  C7_7 
REMARK    7  A    between atoms: C9_9  and  C8_8 
REMARK    8  A    between atoms: C10_10  and  C9_9 
REMARK    9  A    between atoms: C11_12  and  C10_10 
REMARK   10  A    between atoms: C11_12  and  C12_13 
REMARK       I    between atoms: C12_13  and  N1_15 
REMARK   11  A    between atoms: C13_16  and  N1_15 
ROOT
ATOM      1  C10 OHN d          40.325  15.559  -1.874  0.00  0.00     0.135 C 
ATOM      2  O1  OHN d          39.972  15.429  -3.034  0.00  0.00    -0.297 OA
ENDROOT
BRANCH   1   3
ATOM      3  C11 OHN d          41.312  14.631  -1.249  0.00  0.00     0.181 C 
BRANCH   3   4
ATOM      4  C12 OHN d          40.603  13.489  -0.568  0.00  0.00     0.225 C 
ATOM      5  N1  OHN d          41.124  12.968   0.535  0.00  0.00    -0.347 N 
ATOM      6  H19 OHN d          41.997  13.299   0.921  0.00  0.00     0.163 HD
ATOM      7  O2  OHN d          39.577  13.087  -1.064  0.00  0.00    -0.273 OA
BRANCH   5   8
ATOM      8  C13 OHN d          40.377  11.909   1.150  0.00  0.00     0.186 C 
ATOM      9  C14 OHN d          40.986  10.518   0.990  0.00  0.00     0.062 C 
ATOM     10  C15 OHN d          40.800   9.776   2.325  0.00  0.00     0.181 C 
ATOM     11  O4  OHN d          40.578  10.791   3.287  0.00  0.00    -0.320 OA
ATOM     12  C16 OHN d          40.329  12.027   2.625  0.00  0.00     0.281 C 
ATOM     13  O3  OHN d          40.090  13.046   3.215  0.00  0.00    -0.263 OA
ENDBRANCH   5   8
ENDBRANCH   3   4
ENDBRANCH   1   3
BRANCH   1  14
ATOM     14  C9  OHN d          39.726  16.627  -1.017  0.00  0.00     0.079 C 
BRANCH  14  15
ATOM     15  C8  OHN d          39.898  18.002  -1.615  0.00  0.00     0.007 C 
BRANCH  15  16
ATOM     16  C7  OHN d          38.671  18.777  -1.158  0.00  0.00     0.000 C 
BRANCH  16  17
ATOM     17  C6  OHN d          38.444  18.568   0.343  0.00  0.00     0.000 C 
BRANCH  17  18
ATOM     18  C5  OHN d          38.120  19.912   0.974  0.00  0.00     0.000 C 
BRANCH  18  19
ATOM     19  C4  OHN d          38.747  21.024   0.161  0.00  0.00     0.000 C 
BRANCH  19  20
ATOM     20  C3  OHN d          39.318  22.081   1.085  0.00  0.00    -0.000 C 
BRANCH  20  21
ATOM     21  C2  OHN d          40.119  23.077   0.279  0.00  0.00    -0.005 C 
ATOM     22  C1  OHN d          40.458  22.422  -1.032  0.00  0.00     0.005 C 
ENDBRANCH  20  21
ENDBRANCH  19  20
ENDBRANCH  18  19
ENDBRANCH  17  18
ENDBRANCH  16  17
ENDBRANCH  15  16
ENDBRANCH  14  15
ENDBRANCH   1  14
TORSDOF 11
ENDMDL
MODEL 11
REMARK VINA RESULT:      -7.1      4.075      8.612
REMARK  11 active torsions:
REMARK  status: ('A' for Active; 'I' for Inactive)
REMARK    1  A    between atoms: C3_3  and  C2_2 
REMARK    2  A    between atoms: C4_4  and  C3_3 
REMARK    3  A    between atoms: C5_5  and  C4_4 
REMARK    4  A    between atoms: C6_6  and  C5_5 
REMARK    5  A    between atoms: C7_7  and  C6_6 
REMARK    6  A    between atoms: C8_8  and  C7_7 
REMARK    7  A    between atoms: C9_9  and  C8_8 
REMARK    8  A    between atoms: C10_10  and  C9_9 
REMARK    9  A    between atoms: C11_12  and  C10_10 
REMARK   10  A    between atoms: C11_12  and  C12_13 
REMARK       I    between atoms: C12_13  and  N1_15 
REMARK   11  A    between atoms: C13_16  and  N1_15 
ROOT
ATOM      1  C10 OHN d          41.007  14.389  -1.852  0.00  0.00     0.135 C 
ATOM      2  O1  OHN d          41.681  13.375  -1.911  0.00  0.00    -0.297 OA
ENDROOT
BRANCH   1   3
ATOM      3  C11 OHN d          39.745  14.445  -1.056  0.00  0.00     0.181 C 
BRANCH   3   4
ATOM      4  C12 OHN d          39.554  13.166  -0.284  0.00  0.00     0.225 C 
ATOM      5  N1  OHN d          40.352  12.903   0.743  0.00  0.00    -0.347 N 
ATOM      6  H19 OHN d          41.101  13.526   1.009  0.00  0.00     0.163 HD
ATOM      7  O2  OHN d          38.673  12.419  -0.639  0.00  0.00    -0.273 OA
BRANCH   5   8
ATOM      8  C13 OHN d          40.090  11.686   1.455  0.00  0.00     0.186 C 
ATOM      9  C14 OHN d          41.040  10.536   1.131  0.00  0.00     0.062 C 
ATOM     10  C15 OHN d          41.350   9.807   2.450  0.00  0.00     0.181 C 
ATOM     11  O4  OHN d          41.031  10.734   3.471  0.00  0.00    -0.320 OA
ATOM     12  C16 OHN d          40.300  11.822   2.914  0.00  0.00     0.281 C 
ATOM     13  O3  OHN d          39.891  12.739   3.574  0.00  0.00    -0.263 OA
ENDBRANCH   5   8
ENDBRANCH   3   4
ENDBRANCH   1   3
BRANCH   1  14
ATOM     14  C9  OHN d          41.397  15.603  -2.633  0.00  0.00     0.079 C 
BRANCH  14  15
ATOM     15  C8  OHN d          40.212  16.261  -3.296  0.00  0.00     0.007 C 
BRANCH  15  16
ATOM     16  C7  OHN d          40.304  17.723  -2.887  0.00  0.00     0.000 C 
BRANCH  16  17
ATOM     17  C6  OHN d          39.761  17.908  -1.466  0.00  0.00     0.000 C 
BRANCH  17  18
ATOM     18  C5  OHN d          39.269  19.339  -1.320  0.00  0.00     0.000 C 
BRANCH  18  19
ATOM     19  C4  OHN d          38.180  19.401  -0.272  0.00  0.00     0.000 C 
BRANCH  19  20
ATOM     20  C3  OHN d          38.556  20.397   0.807  0.00  0.00    -0.000 C 
BRANCH  20  21
ATOM     21  C2  OHN d          39.125  21.643   0.168  0.00  0.00    -0.005 C 
ATOM     22  C1  OHN d          39.782  22.444   1.258  0.00  0.00     0.005 C 
ENDBRANCH  20  21
ENDBRANCH  19  20
ENDBRANCH  18  19
ENDBRANCH  17  18
ENDBRANCH  16  17
ENDBRANCH  15  16
ENDBRANCH  14  15
ENDBRANCH   1  14
TORSDOF 11
ENDMDL
MODEL 12
REMARK VINA RESULT:      -7.1      2.563      8.315
REMARK  11 active torsions:
REMARK  status: ('A' for Active; 'I' for Inactive)
REMARK    1  A    between atoms: C3_3  and  C2_2 
REMARK    2  A    between atoms: C4_4  and  C3_3 
REMARK    3  A    between atoms: C5_5  and  C4_4 
REMARK    4  A    between atoms: C6_6  and  C5_5 
REMARK    5  A    between atoms: C7_7  and  C6_6 
REMARK    6  A    between atoms: C8_8  and  C7_7 
REMARK    7  A    between atoms: C9_9  and  C8_8 
REMARK    8  A    between atoms: C10_10  and  C9_9 
REMARK    9  A    between atoms: C11_12  and  C10_10 
REMARK   10  A    between atoms: C11_12  and  C12_13 
REMARK       I    between atoms: C12_13  and  N1_15 
REMARK   11  A    between atoms: C13_16  and  N1_15 
ROOT
ATOM      1  C10 OHN d          39.987  17.566  -2.151  0.00  0.00     0.135 C 
ATOM      2  O1  OHN d          39.710  18.720  -2.430  0.00  0.00    -0.297 OA
ENDROOT
BRANCH   1   3
ATOM      3  C11 OHN d          40.596  16.644  -3.154  0.00  0.00     0.181 C 
BRANCH   3   4
ATOM      4  C12 OHN d          40.185  15.221  -2.877  0.00  0.00     0.225 C 
ATOM      5  N1  OHN d          40.859  14.515  -1.979  0.00  0.00    -0.347 N 
ATOM      6  H19 OHN d          41.657  14.895  -1.491  0.00  0.00     0.163 HD
ATOM      7  O2  OHN d          39.248  14.774  -3.495  0.00  0.00    -0.273 OA
BRANCH   5   8
ATOM      8  C13 OHN d          40.391  13.180  -1.740  0.00  0.00     0.186 C 
ATOM      9  C14 OHN d          41.451  12.211  -1.223  0.00  0.00     0.062 C 
ATOM     10  C15 OHN d          40.788  11.328  -0.152  0.00  0.00     0.181 C 
ATOM     11  O4  OHN d          39.638  12.043   0.260  0.00  0.00    -0.320 OA
ATOM     12  C16 OHN d          39.393  13.114  -0.648  0.00  0.00     0.281 C 
ATOM     13  O3  OHN d          38.462  13.864  -0.536  0.00  0.00    -0.263 OA
ENDBRANCH   5   8
ENDBRANCH   3   4
ENDBRANCH   1   3
BRANCH   1  14
ATOM     14  C9  OHN d          39.666  17.017  -0.798  0.00  0.00     0.079 C 
BRANCH  14  15
ATOM     15  C8  OHN d          38.357  17.545  -0.263  0.00  0.00     0.007 C 
BRANCH  15  16
ATOM     16  C7  OHN d          38.748  18.443   0.899  0.00  0.00     0.000 C 
BRANCH  16  17
ATOM     17  C6  OHN d          37.759  19.607   1.023  0.00  0.00     0.000 C 
BRANCH  17  18
ATOM     18  C5  OHN d          38.026  20.589  -0.108  0.00  0.00     0.000 C 
BRANCH  18  19
ATOM     19  C4  OHN d          39.268  21.396   0.199  0.00  0.00     0.000 C 
BRANCH  19  20
ATOM     20  C3  OHN d          39.883  21.907  -1.089  0.00  0.00    -0.000 C 
BRANCH  20  21
ATOM     21  C2  OHN d          40.488  23.273  -0.853  0.00  0.00    -0.005 C 
ATOM     22  C1  OHN d          39.855  23.832   0.391  0.00  0.00     0.005 C 
ENDBRANCH  20  21
ENDBRANCH  19  20
ENDBRANCH  18  19
ENDBRANCH  17  18
ENDBRANCH  16  17
ENDBRANCH  15  16
ENDBRANCH  14  15
ENDBRANCH   1  14
TORSDOF 11
ENDMDL
MODEL 13
REMARK VINA RESULT:      -6.8      1.284      1.771
REMARK  11 active torsions:
REMARK  status: ('A' for Active; 'I' for Inactive)
REMARK    1  A    between atoms: C3_3  and  C2_2 
REMARK    2  A    between atoms: C4_4  and  C3_3 
REMARK    3  A    between atoms: C5_5  and  C4_4 
REMARK    4  A    between atoms: C6_6  and  C5_5 
REMARK    5  A    between atoms: C7_7  and  C6_6 
REMARK    6  A    between atoms: C8_8  and  C7_7 
REMARK    7  A    between atoms: C9_9  and  C8_8 
REMARK    8  A    between atoms: C10_10  and  C9_9 
REMARK    9  A    between atoms: C11_12  and  C10_10 
REMARK   10  A    between atoms: C11_12  and  C12_13 
REMARK       I    between atoms: C12_13  and  N1_15 
REMARK   11  A    between atoms: C13_16  and  N1_15 
ROOT
ATOM      1  C10 OHN d          39.198  17.534  -0.431  0.00  0.00     0.135 C 
ATOM      2  O1  OHN d          38.918  17.773   0.731  0.00  0.00    -0.297 OA
ENDROOT
BRANCH   1   3
ATOM      3  C11 OHN d          38.833  18.474  -1.533  0.00  0.00     0.181 C 
BRANCH   3   4
ATOM      4  C12 OHN d          39.653  19.734  -1.442  0.00  0.00     0.225 C 
ATOM      5  N1  OHN d          39.462  20.560  -0.421  0.00  0.00    -0.347 N 
ATOM      6  H19 OHN d          38.765  20.380   0.287  0.00  0.00     0.163 HD
ATOM      7  O2  OHN d          40.458  19.947  -2.317  0.00  0.00    -0.273 OA
BRANCH   5   8
ATOM      8  C13 OHN d          40.302  21.721  -0.380  0.00  0.00     0.186 C 
ATOM      9  C14 OHN d          40.126  22.683  -1.552  0.00  0.00     0.062 C 
ATOM     10  C15 OHN d          40.197  24.114  -0.991  0.00  0.00     0.181 C 
ATOM     11  O4  OHN d          39.929  23.985   0.393  0.00  0.00    -0.320 OA
ATOM     12  C16 OHN d          39.990  22.610   0.762  0.00  0.00     0.281 C 
ATOM     13  O3  OHN d          39.820  22.229   1.889  0.00  0.00    -0.263 OA
ENDBRANCH   5   8
ENDBRANCH   3   4
ENDBRANCH   1   3
BRANCH   1  14
ATOM     14  C9  OHN d          39.869  16.250  -0.800  0.00  0.00     0.079 C 
BRANCH  14  15
ATOM     15  C8  OHN d          40.020  16.093  -2.293  0.00  0.00     0.007 C 
BRANCH  15  16
ATOM     16  C7  OHN d          41.346  15.370  -2.473  0.00  0.00     0.000 C 
BRANCH  16  17
ATOM     17  C6  OHN d          41.620  14.466  -1.267  0.00  0.00     0.000 C 
BRANCH  17  18
ATOM     18  C5  OHN d          41.850  13.048  -1.768  0.00  0.00     0.000 C 
BRANCH  18  19
ATOM     19  C4  OHN d          41.113  12.068  -0.883  0.00  0.00     0.000 C 
BRANCH  19  20
ATOM     20  C3  OHN d          40.590  12.777   0.351  0.00  0.00    -0.000 C 
BRANCH  20  21
ATOM     21  C2  OHN d          40.871  11.936   1.575  0.00  0.00    -0.005 C 
ATOM     22  C1  OHN d          40.758  10.494   1.162  0.00  0.00     0.005 C 
ENDBRANCH  20  21
ENDBRANCH  19  20
ENDBRANCH  18  19
ENDBRANCH  17  18
ENDBRANCH  16  17
ENDBRANCH  15  16
ENDBRANCH  14  15
ENDBRANCH   1  14
TORSDOF 11
ENDMDL
