MODEL 1
REMARK VINA RESULT:      -7.4      0.000      0.000
REMARK  11 active torsions:
REMARK  status: ('A' for Active; 'I' for Inactive)
REMARK    1  A    between atoms: C3_3  and  C2_2 
REMARK    2  A    between atoms: C4_4  and  C3_3 
REMARK    3  A    between atoms: C5_5  and  C4_4 
REMARK    4  A    between atoms: C6_6  and  C5_5 
REMARK    5  A    between atoms: C7_7  and  C6_6 
REMARK    6  A    between atoms: C8_8  and  C7_7 
REMARK    7  A    between atoms: C9_9  and  C8_8 
REMARK    8  A    between atoms: C10_10  and  C9_9 
REMARK    9  A    between atoms: C11_12  and  C10_10 
REMARK   10  A    between atoms: C11_12  and  C12_13 
REMARK       I    between atoms: C12_13  and  N1_15 
REMARK   11  A    between atoms: C13_16  and  N1_15 
ROOT
ATOM      1  C10 OHN d          39.734  16.808  -1.551  0.00  0.00     0.135 C 
ATOM      2  O1  OHN d          39.450  17.111  -0.405  0.00  0.00    -0.297 OA
ENDROOT
BRANCH   1   3
ATOM      3  C11 OHN d          39.695  15.391  -2.019  0.00  0.00     0.181 C 
BRANCH   3   4
ATOM      4  C12 OHN d          40.586  14.530  -1.162  0.00  0.00     0.225 C 
ATOM      5  N1  OHN d          40.043  13.581  -0.411  0.00  0.00    -0.347 N 
ATOM      6  H19 OHN d          39.045  13.433  -0.378  0.00  0.00     0.163 HD
ATOM      7  O2  OHN d          41.775  14.745  -1.191  0.00  0.00    -0.273 OA
BRANCH   5   8
ATOM      8  C13 OHN d          40.954  12.776   0.351  0.00  0.00     0.186 C 
ATOM      9  C14 OHN d          40.445  12.361   1.730  0.00  0.00     0.062 C 
ATOM     10  C15 OHN d          40.878  10.904   1.963  0.00  0.00     0.181 C 
ATOM     11  O4  OHN d          41.149  10.385   0.674  0.00  0.00    -0.320 OA
ATOM     12  C16 OHN d          41.200  11.454  -0.267  0.00  0.00     0.281 C 
ATOM     13  O3  OHN d          41.435  11.285  -1.433  0.00  0.00    -0.263 OA
ENDBRANCH   5   8
ENDBRANCH   3   4
ENDBRANCH   1   3
BRANCH   1  14
ATOM     14  C9  OHN d          40.195  17.852  -2.517  0.00  0.00     0.079 C 
BRANCH  14  15
ATOM     15  C8  OHN d          40.529  17.270  -3.869  0.00  0.00     0.007 C 
BRANCH  15  16
ATOM     16  C7  OHN d          41.006  18.457  -4.692  0.00  0.00     0.000 C 
BRANCH  16  17
ATOM     17  C6  OHN d          41.010  18.098  -6.182  0.00  0.00     0.000 C 
BRANCH  17  18
ATOM     18  C5  OHN d          41.980  19.024  -6.899  0.00  0.00     0.000 C 
BRANCH  18  19
ATOM     19  C4  OHN d          42.981  18.207  -7.685  0.00  0.00     0.000 C 
BRANCH  19  20
ATOM     20  C3  OHN d          42.263  17.377  -8.732  0.00  0.00    -0.000 C 
BRANCH  20  21
ATOM     21  C2  OHN d          43.272  16.795  -9.695  0.00  0.00    -0.005 C 
ATOM     22  C1  OHN d          43.015  15.316  -9.772  0.00  0.00     0.005 C 
ENDBRANCH  20  21
ENDBRANCH  19  20
ENDBRANCH  18  19
ENDBRANCH  17  18
ENDBRANCH  16  17
ENDBRANCH  15  16
ENDBRANCH  14  15
ENDBRANCH   1  14
TORSDOF 11
ENDMDL
MODEL 2
REMARK VINA RESULT:      -6.6      1.367      1.887
REMARK  11 active torsions:
REMARK  status: ('A' for Active; 'I' for Inactive)
REMARK    1  A    between atoms: C3_3  and  C2_2 
REMARK    2  A    between atoms: C4_4  and  C3_3 
REMARK    3  A    between atoms: C5_5  and  C4_4 
REMARK    4  A    between atoms: C6_6  and  C5_5 
REMARK    5  A    between atoms: C7_7  and  C6_6 
REMARK    6  A    between atoms: C8_8  and  C7_7 
REMARK    7  A    between atoms: C9_9  and  C8_8 
REMARK    8  A    between atoms: C10_10  and  C9_9 
REMARK    9  A    between atoms: C11_12  and  C10_10 
REMARK   10  A    between atoms: C11_12  and  C12_13 
REMARK       I    between atoms: C12_13  and  N1_15 
REMARK   11  A    between atoms: C13_16  and  N1_15 
ROOT
ATOM      1  C10 OHN d          39.884  17.675  -2.036  0.00  0.00     0.135 C 
ATOM      2  O1  OHN d          39.532  18.842  -2.064  0.00  0.00    -0.297 OA
ENDROOT
BRANCH   1   3
ATOM      3  C11 OHN d          39.639  16.812  -0.843  0.00  0.00     0.181 C 
BRANCH   3   4
ATOM      4  C12 OHN d          39.582  15.362  -1.247  0.00  0.00     0.225 C 
ATOM      5  N1  OHN d          40.569  14.550  -0.891  0.00  0.00    -0.347 N 
ATOM      6  H19 OHN d          41.372  14.881  -0.377  0.00  0.00     0.163 HD
ATOM      7  O2  OHN d          38.628  14.993  -1.891  0.00  0.00    -0.273 OA
BRANCH   5   8
ATOM      8  C13 OHN d          40.431  13.176  -1.279  0.00  0.00     0.186 C 
ATOM      9  C14 OHN d          41.661  12.572  -1.953  0.00  0.00     0.062 C 
ATOM     10  C15 OHN d          41.821  11.137  -1.423  0.00  0.00     0.181 C 
ATOM     11  O4  OHN d          41.084  11.102  -0.214  0.00  0.00    -0.320 OA
ATOM     12  C16 OHN d          40.274  12.270  -0.118  0.00  0.00     0.281 C 
ATOM     13  O3  OHN d          39.533  12.476   0.805  0.00  0.00    -0.263 OA
ENDBRANCH   5   8
ENDBRANCH   3   4
ENDBRANCH   1   3
BRANCH   1  14
ATOM     14  C9  OHN d          40.633  17.084  -3.187  0.00  0.00     0.079 C 
BRANCH  14  15
ATOM     15  C8  OHN d          40.109  17.567  -4.518  0.00  0.00     0.007 C 
BRANCH  15  16
ATOM     16  C7  OHN d          41.269  18.334  -5.134  0.00  0.00     0.000 C 
BRANCH  16  17
ATOM     17  C6  OHN d          41.168  18.304  -6.662  0.00  0.00     0.000 C 
BRANCH  17  18
ATOM     18  C5  OHN d          42.433  18.918  -7.242  0.00  0.00     0.000 C 
BRANCH  18  19
ATOM     19  C4  OHN d          43.216  17.864  -7.992  0.00  0.00     0.000 C 
BRANCH  19  20
ATOM     20  C3  OHN d          42.288  17.076  -8.896  0.00  0.00    -0.000 C 
BRANCH  20  21
ATOM     21  C2  OHN d          43.086  16.053  -9.672  0.00  0.00    -0.005 C 
ATOM     22  C1  OHN d          43.696  16.762 -10.849  0.00  0.00     0.005 C 
ENDBRANCH  20  21
ENDBRANCH  19  20
ENDBRANCH  18  19
ENDBRANCH  17  18
ENDBRANCH  16  17
ENDBRANCH  15  16
ENDBRANCH  14  15
ENDBRANCH   1  14
TORSDOF 11
ENDMDL
MODEL 3
REMARK VINA RESULT:      -6.5      2.651      5.050
REMARK  11 active torsions:
REMARK  status: ('A' for Active; 'I' for Inactive)
REMARK    1  A    between atoms: C3_3  and  C2_2 
REMARK    2  A    between atoms: C4_4  and  C3_3 
REMARK    3  A    between atoms: C5_5  and  C4_4 
REMARK    4  A    between atoms: C6_6  and  C5_5 
REMARK    5  A    between atoms: C7_7  and  C6_6 
REMARK    6  A    between atoms: C8_8  and  C7_7 
REMARK    7  A    between atoms: C9_9  and  C8_8 
REMARK    8  A    between atoms: C10_10  and  C9_9 
REMARK    9  A    between atoms: C11_12  and  C10_10 
REMARK   10  A    between atoms: C11_12  and  C12_13 
REMARK       I    between atoms: C12_13  and  N1_15 
REMARK   11  A    between atoms: C13_16  and  N1_15 
ROOT
ATOM      1  C10 OHN d          41.033  15.404  -2.332  0.00  0.00     0.135 C 
ATOM      2  O1  OHN d          42.161  14.967  -2.484  0.00  0.00    -0.297 OA
ENDROOT
BRANCH   1   3
ATOM      3  C11 OHN d          40.318  15.289  -1.027  0.00  0.00     0.181 C 
BRANCH   3   4
ATOM      4  C12 OHN d          39.336  16.420  -0.864  0.00  0.00     0.225 C 
ATOM      5  N1  OHN d          39.791  17.645  -0.635  0.00  0.00    -0.347 N 
ATOM      6  H19 OHN d          40.778  17.839  -0.543  0.00  0.00     0.163 HD
ATOM      7  O2  OHN d          38.159  16.160  -0.944  0.00  0.00    -0.273 OA
BRANCH   5   8
ATOM      8  C13 OHN d          38.802  18.678  -0.526  0.00  0.00     0.186 C 
ATOM      9  C14 OHN d          38.291  18.930   0.891  0.00  0.00     0.062 C 
ATOM     10  C15 OHN d          38.135  20.450   1.062  0.00  0.00     0.181 C 
ATOM     11  O4  OHN d          38.944  21.024   0.052  0.00  0.00    -0.320 OA
ATOM     12  C16 OHN d          39.334  20.015  -0.874  0.00  0.00     0.281 C 
ATOM     13  O3  OHN d          40.011  20.243  -1.841  0.00  0.00    -0.263 OA
ENDBRANCH   5   8
ENDBRANCH   3   4
ENDBRANCH   1   3
BRANCH   1  14
ATOM     14  C9  OHN d          40.302  16.024  -3.479  0.00  0.00     0.079 C 
BRANCH  14  15
ATOM     15  C8  OHN d          40.711  17.458  -3.710  0.00  0.00     0.007 C 
BRANCH  15  16
ATOM     16  C7  OHN d          40.410  17.714  -5.179  0.00  0.00     0.000 C 
BRANCH  16  17
ATOM     17  C6  OHN d          41.444  18.679  -5.768  0.00  0.00     0.000 C 
BRANCH  17  18
ATOM     18  C5  OHN d          41.583  18.390  -7.255  0.00  0.00     0.000 C 
BRANCH  18  19
ATOM     19  C4  OHN d          43.040  18.455  -7.654  0.00  0.00     0.000 C 
BRANCH  19  20
ATOM     20  C3  OHN d          43.339  17.395  -8.697  0.00  0.00    -0.000 C 
BRANCH  20  21
ATOM     21  C2  OHN d          42.062  16.676  -9.066  0.00  0.00    -0.005 C 
ATOM     22  C1  OHN d          42.443  15.498  -9.919  0.00  0.00     0.005 C 
ENDBRANCH  20  21
ENDBRANCH  19  20
ENDBRANCH  18  19
ENDBRANCH  17  18
ENDBRANCH  16  17
ENDBRANCH  15  16
ENDBRANCH  14  15
ENDBRANCH   1  14
TORSDOF 11
ENDMDL
MODEL 4
REMARK VINA RESULT:      -6.4      1.466      2.698
REMARK  11 active torsions:
REMARK  status: ('A' for Active; 'I' for Inactive)
REMARK    1  A    between atoms: C3_3  and  C2_2 
REMARK    2  A    between atoms: C4_4  and  C3_3 
REMARK    3  A    between atoms: C5_5  and  C4_4 
REMARK    4  A    between atoms: C6_6  and  C5_5 
REMARK    5  A    between atoms: C7_7  and  C6_6 
REMARK    6  A    between atoms: C8_8  and  C7_7 
REMARK    7  A    between atoms: C9_9  and  C8_8 
REMARK    8  A    between atoms: C10_10  and  C9_9 
REMARK    9  A    between atoms: C11_12  and  C10_10 
REMARK   10  A    between atoms: C11_12  and  C12_13 
REMARK       I    between atoms: C12_13  and  N1_15 
REMARK   11  A    between atoms: C13_16  and  N1_15 
ROOT
ATOM      1  C10 OHN d          40.361  17.587  -3.686  0.00  0.00     0.135 C 
ATOM      2  O1  OHN d          39.991  16.496  -4.084  0.00  0.00    -0.297 OA
ENDROOT
BRANCH   1   3
ATOM      3  C11 OHN d          40.065  18.055  -2.300  0.00  0.00     0.181 C 
BRANCH   3   4
ATOM      4  C12 OHN d          39.784  16.882  -1.397  0.00  0.00     0.225 C 
ATOM      5  N1  OHN d          40.556  15.806  -1.472  0.00  0.00    -0.347 N 
ATOM      6  H19 OHN d          41.315  15.740  -2.135  0.00  0.00     0.163 HD
ATOM      7  O2  OHN d          38.850  16.968  -0.635  0.00  0.00    -0.273 OA
BRANCH   5   8
ATOM      8  C13 OHN d          40.253  14.742  -0.560  0.00  0.00     0.186 C 
ATOM      9  C14 OHN d          39.006  13.932  -0.909  0.00  0.00     0.062 C 
ATOM     10  C15 OHN d          39.318  12.455  -0.616  0.00  0.00     0.181 C 
ATOM     11  O4  OHN d          40.732  12.370  -0.593  0.00  0.00    -0.320 OA
ATOM     12  C16 OHN d          41.286  13.682  -0.557  0.00  0.00     0.281 C 
ATOM     13  O3  OHN d          42.468  13.889  -0.512  0.00  0.00    -0.263 OA
ENDBRANCH   5   8
ENDBRANCH   3   4
ENDBRANCH   1   3
BRANCH   1  14
ATOM     14  C9  OHN d          41.080  18.523  -4.603  0.00  0.00     0.079 C 
BRANCH  14  15
ATOM     15  C8  OHN d          41.015  18.075  -6.043  0.00  0.00     0.007 C 
BRANCH  15  16
ATOM     16  C7  OHN d          41.859  19.087  -6.801  0.00  0.00     0.000 C 
BRANCH  16  17
ATOM     17  C6  OHN d          42.923  18.366  -7.636  0.00  0.00     0.000 C 
BRANCH  17  18
ATOM     18  C5  OHN d          42.226  17.372  -8.552  0.00  0.00     0.000 C 
BRANCH  18  19
ATOM     19  C4  OHN d          43.216  16.819  -9.553  0.00  0.00     0.000 C 
BRANCH  19  20
ATOM     20  C3  OHN d          42.681  15.532 -10.152  0.00  0.00    -0.000 C 
BRANCH  20  21
ATOM     21  C2  OHN d          43.117  15.427 -11.595  0.00  0.00    -0.005 C 
ATOM     22  C1  OHN d          44.045  16.579 -11.866  0.00  0.00     0.005 C 
ENDBRANCH  20  21
ENDBRANCH  19  20
ENDBRANCH  18  19
ENDBRANCH  17  18
ENDBRANCH  16  17
ENDBRANCH  15  16
ENDBRANCH  14  15
ENDBRANCH   1  14
TORSDOF 11
ENDMDL
MODEL 5
REMARK VINA RESULT:      -6.3      2.836      5.850
REMARK  11 active torsions:
REMARK  status: ('A' for Active; 'I' for Inactive)
REMARK    1  A    between atoms: C3_3  and  C2_2 
REMARK    2  A    between atoms: C4_4  and  C3_3 
REMARK    3  A    between atoms: C5_5  and  C4_4 
REMARK    4  A    between atoms: C6_6  and  C5_5 
REMARK    5  A    between atoms: C7_7  and  C6_6 
REMARK    6  A    between atoms: C8_8  and  C7_7 
REMARK    7  A    between atoms: C9_9  and  C8_8 
REMARK    8  A    between atoms: C10_10  and  C9_9 
REMARK    9  A    between atoms: C11_12  and  C10_10 
REMARK   10  A    between atoms: C11_12  and  C12_13 
REMARK       I    between atoms: C12_13  and  N1_15 
REMARK   11  A    between atoms: C13_16  and  N1_15 
ROOT
ATOM      1  C10 OHN d          38.533  14.143  -1.240  0.00  0.00     0.135 C 
ATOM      2  O1  OHN d          38.546  13.175  -0.501  0.00  0.00    -0.297 OA
ENDROOT
BRANCH   1   3
ATOM      3  C11 OHN d          37.656  15.321  -0.971  0.00  0.00     0.181 C 
BRANCH   3   4
ATOM      4  C12 OHN d          38.478  16.487  -0.484  0.00  0.00     0.225 C 
ATOM      5  N1  OHN d          38.069  17.722  -0.744  0.00  0.00    -0.347 N 
ATOM      6  H19 OHN d          37.233  17.905  -1.281  0.00  0.00     0.163 HD
ATOM      7  O2  OHN d          39.491  16.246   0.128  0.00  0.00    -0.273 OA
BRANCH   5   8
ATOM      8  C13 OHN d          38.880  18.782  -0.220  0.00  0.00     0.186 C 
ATOM      9  C14 OHN d          39.541  19.666  -1.274  0.00  0.00     0.062 C 
ATOM     10  C15 OHN d          39.469  21.118  -0.772  0.00  0.00     0.181 C 
ATOM     11  O4  OHN d          38.440  21.125   0.201  0.00  0.00    -0.320 OA
ATOM     12  C16 OHN d          38.091  19.784   0.533  0.00  0.00     0.281 C 
ATOM     13  O3  OHN d          37.255  19.511   1.351  0.00  0.00    -0.263 OA
ENDBRANCH   5   8
ENDBRANCH   3   4
ENDBRANCH   1   3
BRANCH   1  14
ATOM     14  C9  OHN d          39.359  14.156  -2.486  0.00  0.00     0.079 C 
BRANCH  14  15
ATOM     15  C8  OHN d          40.838  14.113  -2.191  0.00  0.00     0.007 C 
BRANCH  15  16
ATOM     16  C7  OHN d          41.345  15.500  -2.555  0.00  0.00     0.000 C 
BRANCH  16  17
ATOM     17  C6  OHN d          40.566  16.047  -3.756  0.00  0.00     0.000 C 
BRANCH  17  18
ATOM     18  C5  OHN d          40.268  17.517  -3.509  0.00  0.00     0.000 C 
BRANCH  18  19
ATOM     19  C4  OHN d          41.079  18.370  -4.460  0.00  0.00     0.000 C 
BRANCH  19  20
ATOM     20  C3  OHN d          40.712  18.038  -5.894  0.00  0.00    -0.000 C 
BRANCH  20  21
ATOM     21  C2  OHN d          41.855  18.415  -6.808  0.00  0.00    -0.005 C 
ATOM     22  C1  OHN d          41.853  19.913  -6.931  0.00  0.00     0.005 C 
ENDBRANCH  20  21
ENDBRANCH  19  20
ENDBRANCH  18  19
ENDBRANCH  17  18
ENDBRANCH  16  17
ENDBRANCH  15  16
ENDBRANCH  14  15
ENDBRANCH   1  14
TORSDOF 11
ENDMDL
MODEL 6
REMARK VINA RESULT:      -6.2      1.450      1.953
REMARK  11 active torsions:
REMARK  status: ('A' for Active; 'I' for Inactive)
REMARK    1  A    between atoms: C3_3  and  C2_2 
REMARK    2  A    between atoms: C4_4  and  C3_3 
REMARK    3  A    between atoms: C5_5  and  C4_4 
REMARK    4  A    between atoms: C6_6  and  C5_5 
REMARK    5  A    between atoms: C7_7  and  C6_6 
REMARK    6  A    between atoms: C8_8  and  C7_7 
REMARK    7  A    between atoms: C9_9  and  C8_8 
REMARK    8  A    between atoms: C10_10  and  C9_9 
REMARK    9  A    between atoms: C11_12  and  C10_10 
REMARK   10  A    between atoms: C11_12  and  C12_13 
REMARK       I    between atoms: C12_13  and  N1_15 
REMARK   11  A    between atoms: C13_16  and  N1_15 
ROOT
ATOM      1  C10 OHN d          39.356  14.871  -2.521  0.00  0.00     0.135 C 
ATOM      2  O1  OHN d          39.096  14.328  -3.581  0.00  0.00    -0.297 OA
ENDROOT
BRANCH   1   3
ATOM      3  C11 OHN d          38.612  14.542  -1.270  0.00  0.00     0.181 C 
BRANCH   3   4
ATOM      4  C12 OHN d          39.314  13.444  -0.514  0.00  0.00     0.225 C 
ATOM      5  N1  OHN d          40.541  13.655  -0.055  0.00  0.00    -0.347 N 
ATOM      6  H19 OHN d          41.029  14.524  -0.218  0.00  0.00     0.163 HD
ATOM      7  O2  OHN d          38.725  12.401  -0.359  0.00  0.00    -0.273 OA
BRANCH   5   8
ATOM      8  C13 OHN d          41.134  12.580   0.686  0.00  0.00     0.186 C 
ATOM      9  C14 OHN d          40.369  12.165   1.940  0.00  0.00     0.062 C 
ATOM     10  C15 OHN d          40.419  10.630   2.026  0.00  0.00     0.181 C 
ATOM     11  O4  OHN d          40.729  10.193   0.715  0.00  0.00    -0.320 OA
ATOM     12  C16 OHN d          41.147  11.307  -0.070  0.00  0.00     0.281 C 
ATOM     13  O3  OHN d          41.486  11.204  -1.218  0.00  0.00    -0.263 OA
ENDBRANCH   5   8
ENDBRANCH   3   4
ENDBRANCH   1   3
BRANCH   1  14
ATOM     14  C9  OHN d          40.400  15.939  -2.455  0.00  0.00     0.079 C 
BRANCH  14  15
ATOM     15  C8  OHN d          39.842  17.254  -1.967  0.00  0.00     0.007 C 
BRANCH  15  16
ATOM     16  C7  OHN d          40.145  18.240  -3.085  0.00  0.00     0.000 C 
BRANCH  16  17
ATOM     17  C6  OHN d          40.982  17.561  -4.174  0.00  0.00     0.000 C 
BRANCH  17  18
ATOM     18  C5  OHN d          40.593  18.151  -5.521  0.00  0.00     0.000 C 
BRANCH  18  19
ATOM     19  C4  OHN d          41.789  18.840  -6.141  0.00  0.00     0.000 C 
BRANCH  19  20
ATOM     20  C3  OHN d          41.859  18.520  -7.622  0.00  0.00    -0.000 C 
BRANCH  20  21
ATOM     21  C2  OHN d          43.239  18.006  -7.963  0.00  0.00    -0.005 C 
ATOM     22  C1  OHN d          43.089  17.059  -9.121  0.00  0.00     0.005 C 
ENDBRANCH  20  21
ENDBRANCH  19  20
ENDBRANCH  18  19
ENDBRANCH  17  18
ENDBRANCH  16  17
ENDBRANCH  15  16
ENDBRANCH  14  15
ENDBRANCH   1  14
TORSDOF 11
ENDMDL
MODEL 7
REMARK VINA RESULT:      -6.1      3.163      5.237
REMARK  11 active torsions:
REMARK  status: ('A' for Active; 'I' for Inactive)
REMARK    1  A    between atoms: C3_3  and  C2_2 
REMARK    2  A    between atoms: C4_4  and  C3_3 
REMARK    3  A    between atoms: C5_5  and  C4_4 
REMARK    4  A    between atoms: C6_6  and  C5_5 
REMARK    5  A    between atoms: C7_7  and  C6_6 
REMARK    6  A    between atoms: C8_8  and  C7_7 
REMARK    7  A    between atoms: C9_9  and  C8_8 
REMARK    8  A    between atoms: C10_10  and  C9_9 
REMARK    9  A    between atoms: C11_12  and  C10_10 
REMARK   10  A    between atoms: C11_12  and  C12_13 
REMARK       I    between atoms: C12_13  and  N1_15 
REMARK   11  A    between atoms: C13_16  and  N1_15 
ROOT
ATOM      1  C10 OHN d          39.353  15.184  -2.432  0.00  0.00     0.135 C 
ATOM      2  O1  OHN d          39.395  14.641  -3.522  0.00  0.00    -0.297 OA
ENDROOT
BRANCH   1   3
ATOM      3  C11 OHN d          38.531  14.632  -1.314  0.00  0.00     0.181 C 
BRANCH   3   4
ATOM      4  C12 OHN d          39.281  13.537  -0.602  0.00  0.00     0.225 C 
ATOM      5  N1  OHN d          40.533  13.752  -0.218  0.00  0.00    -0.347 N 
ATOM      6  H19 OHN d          41.007  14.622  -0.410  0.00  0.00     0.163 HD
ATOM      7  O2  OHN d          38.706  12.491  -0.412  0.00  0.00    -0.273 OA
BRANCH   5   8
ATOM      8  C13 OHN d          41.173  12.679   0.486  0.00  0.00     0.186 C 
ATOM      9  C14 OHN d          40.438  12.202   1.736  0.00  0.00     0.062 C 
ATOM     10  C15 OHN d          40.545  10.668   1.779  0.00  0.00     0.181 C 
ATOM     11  O4  OHN d          40.854  10.279   0.453  0.00  0.00    -0.320 OA
ATOM     12  C16 OHN d          41.223  11.428  -0.305  0.00  0.00     0.281 C 
ATOM     13  O3  OHN d          41.552  11.370  -1.459  0.00  0.00    -0.263 OA
ENDBRANCH   5   8
ENDBRANCH   3   4
ENDBRANCH   1   3
BRANCH   1  14
ATOM     14  C9  OHN d          40.083  16.467  -2.197  0.00  0.00     0.079 C 
BRANCH  14  15
ATOM     15  C8  OHN d          40.557  17.098  -3.483  0.00  0.00     0.007 C 
BRANCH  15  16
ATOM     16  C7  OHN d          40.184  18.567  -3.353  0.00  0.00     0.000 C 
BRANCH  16  17
ATOM     17  C6  OHN d          39.753  18.876  -1.916  0.00  0.00     0.000 C 
BRANCH  17  18
ATOM     18  C5  OHN d          40.148  20.308  -1.591  0.00  0.00     0.000 C 
BRANCH  18  19
ATOM     19  C4  OHN d          38.998  21.011  -0.903  0.00  0.00     0.000 C 
BRANCH  19  20
ATOM     20  C3  OHN d          38.995  20.672   0.575  0.00  0.00    -0.000 C 
BRANCH  20  21
ATOM     21  C2  OHN d          37.802  19.799   0.891  0.00  0.00    -0.005 C 
ATOM     22  C1  OHN d          38.302  18.387   1.015  0.00  0.00     0.005 C 
ENDBRANCH  20  21
ENDBRANCH  19  20
ENDBRANCH  18  19
ENDBRANCH  17  18
ENDBRANCH  16  17
ENDBRANCH  15  16
ENDBRANCH  14  15
ENDBRANCH   1  14
TORSDOF 11
ENDMDL
MODEL 8
REMARK VINA RESULT:      -5.8      5.254      9.237
REMARK  11 active torsions:
REMARK  status: ('A' for Active; 'I' for Inactive)
REMARK    1  A    between atoms: C3_3  and  C2_2 
REMARK    2  A    between atoms: C4_4  and  C3_3 
REMARK    3  A    between atoms: C5_5  and  C4_4 
REMARK    4  A    between atoms: C6_6  and  C5_5 
REMARK    5  A    between atoms: C7_7  and  C6_6 
REMARK    6  A    between atoms: C8_8  and  C7_7 
REMARK    7  A    between atoms: C9_9  and  C8_8 
REMARK    8  A    between atoms: C10_10  and  C9_9 
REMARK    9  A    between atoms: C11_12  and  C10_10 
REMARK   10  A    between atoms: C11_12  and  C12_13 
REMARK       I    between atoms: C12_13  and  N1_15 
REMARK   11  A    between atoms: C13_16  and  N1_15 
ROOT
ATOM      1  C10 OHN d          42.579  17.215  -8.842  0.00  0.00     0.135 C 
ATOM      2  O1  OHN d          41.517  16.641  -9.012  0.00  0.00    -0.297 OA
ENDROOT
BRANCH   1   3
ATOM      3  C11 OHN d          43.741  16.996  -9.754  0.00  0.00     0.181 C 
BRANCH   3   4
ATOM      4  C12 OHN d          43.375  16.029 -10.849  0.00  0.00     0.225 C 
ATOM      5  N1  OHN d          43.085  14.773 -10.534  0.00  0.00    -0.347 N 
ATOM      6  H19 OHN d          43.126  14.439  -9.583  0.00  0.00     0.163 HD
ATOM      7  O2  OHN d          43.365  16.440 -11.985  0.00  0.00    -0.273 OA
BRANCH   5   8
ATOM      8  C13 OHN d          42.711  13.917 -11.623  0.00  0.00     0.186 C 
ATOM      9  C14 OHN d          43.211  12.479 -11.510  0.00  0.00     0.062 C 
ATOM     10  C15 OHN d          42.082  11.556 -11.999  0.00  0.00     0.181 C 
ATOM     11  O4  OHN d          40.902  12.335 -11.914  0.00  0.00    -0.320 OA
ATOM     12  C16 OHN d          41.249  13.701 -11.701  0.00  0.00     0.281 C 
ATOM     13  O3  OHN d          40.430  14.575 -11.612  0.00  0.00    -0.263 OA
ENDBRANCH   5   8
ENDBRANCH   3   4
ENDBRANCH   1   3
BRANCH   1  14
ATOM     14  C9  OHN d          42.770  18.119  -7.668  0.00  0.00     0.079 C 
BRANCH  14  15
ATOM     15  C8  OHN d          41.479  18.763  -7.226  0.00  0.00     0.007 C 
BRANCH  15  16
ATOM     16  C7  OHN d          41.489  18.649  -5.710  0.00  0.00     0.000 C 
BRANCH  16  17
ATOM     17  C6  OHN d          40.406  17.668  -5.248  0.00  0.00     0.000 C 
BRANCH  17  18
ATOM     18  C5  OHN d          40.514  17.504  -3.740  0.00  0.00     0.000 C 
BRANCH  18  19
ATOM     19  C4  OHN d          40.197  16.075  -3.358  0.00  0.00     0.000 C 
BRANCH  19  20
ATOM     20  C3  OHN d          40.781  15.763  -1.994  0.00  0.00    -0.000 C 
BRANCH  20  21
ATOM     21  C2  OHN d          41.802  14.656  -2.123  0.00  0.00    -0.005 C 
ATOM     22  C1  OHN d          41.693  13.800  -0.892  0.00  0.00     0.005 C 
ENDBRANCH  20  21
ENDBRANCH  19  20
ENDBRANCH  18  19
ENDBRANCH  17  18
ENDBRANCH  16  17
ENDBRANCH  15  16
ENDBRANCH  14  15
ENDBRANCH   1  14
TORSDOF 11
ENDMDL
MODEL 9
REMARK VINA RESULT:      -5.7      4.737      9.096
REMARK  11 active torsions:
REMARK  status: ('A' for Active; 'I' for Inactive)
REMARK    1  A    between atoms: C3_3  and  C2_2 
REMARK    2  A    between atoms: C4_4  and  C3_3 
REMARK    3  A    between atoms: C5_5  and  C4_4 
REMARK    4  A    between atoms: C6_6  and  C5_5 
REMARK    5  A    between atoms: C7_7  and  C6_6 
REMARK    6  A    between atoms: C8_8  and  C7_7 
REMARK    7  A    between atoms: C9_9  and  C8_8 
REMARK    8  A    between atoms: C10_10  and  C9_9 
REMARK    9  A    between atoms: C11_12  and  C10_10 
REMARK   10  A    between atoms: C11_12  and  C12_13 
REMARK       I    between atoms: C12_13  and  N1_15 
REMARK   11  A    between atoms: C13_16  and  N1_15 
ROOT
ATOM      1  C10 OHN d          41.972  18.879  -7.000  0.00  0.00     0.135 C 
ATOM      2  O1  OHN d          41.756  20.058  -7.222  0.00  0.00    -0.297 OA
ENDROOT
BRANCH   1   3
ATOM      3  C11 OHN d          43.148  18.174  -7.591  0.00  0.00     0.181 C 
BRANCH   3   4
ATOM      4  C12 OHN d          42.721  17.338  -8.769  0.00  0.00     0.225 C 
ATOM      5  N1  OHN d          43.612  17.031  -9.703  0.00  0.00    -0.347 N 
ATOM      6  H19 OHN d          44.565  17.362  -9.660  0.00  0.00     0.163 HD
ATOM      7  O2  OHN d          41.568  16.980  -8.819  0.00  0.00    -0.273 OA
BRANCH   5   8
ATOM      8  C13 OHN d          43.146  16.203 -10.777  0.00  0.00     0.186 C 
ATOM      9  C14 OHN d          43.704  16.560 -12.153  0.00  0.00     0.062 C 
ATOM     10  C15 OHN d          43.999  15.242 -12.889  0.00  0.00     0.181 C 
ATOM     11  O4  OHN d          44.085  14.260 -11.873  0.00  0.00    -0.320 OA
ATOM     12  C16 OHN d          43.593  14.798 -10.649  0.00  0.00     0.281 C 
ATOM     13  O3  OHN d          43.537  14.160  -9.632  0.00  0.00    -0.263 OA
ENDBRANCH   5   8
ENDBRANCH   3   4
ENDBRANCH   1   3
BRANCH   1  14
ATOM     14  C9  OHN d          41.022  18.080  -6.167  0.00  0.00     0.079 C 
BRANCH  14  15
ATOM     15  C8  OHN d          41.062  18.480  -4.712  0.00  0.00     0.007 C 
BRANCH  15  16
ATOM     16  C7  OHN d          40.633  17.231  -3.957  0.00  0.00     0.000 C 
BRANCH  16  17
ATOM     17  C6  OHN d          40.136  17.607  -2.557  0.00  0.00     0.000 C 
BRANCH  17  18
ATOM     18  C5  OHN d          39.811  16.328  -1.801  0.00  0.00     0.000 C 
BRANCH  18  19
ATOM     19  C4  OHN d          39.964  15.137  -2.721  0.00  0.00     0.000 C 
BRANCH  19  20
ATOM     20  C3  OHN d          40.181  13.878  -1.905  0.00  0.00    -0.000 C 
BRANCH  20  21
ATOM     21  C2  OHN d          41.662  13.600  -1.787  0.00  0.00    -0.005 C 
ATOM     22  C1  OHN d          41.945  13.287  -0.344  0.00  0.00     0.005 C 
ENDBRANCH  20  21
ENDBRANCH  19  20
ENDBRANCH  18  19
ENDBRANCH  17  18
ENDBRANCH  16  17
ENDBRANCH  15  16
ENDBRANCH  14  15
ENDBRANCH   1  14
TORSDOF 11
ENDMDL
MODEL 10
REMARK VINA RESULT:      -5.7      4.330      7.414
REMARK  11 active torsions:
REMARK  status: ('A' for Active; 'I' for Inactive)
REMARK    1  A    between atoms: C3_3  and  C2_2 
REMARK    2  A    between atoms: C4_4  and  C3_3 
REMARK    3  A    between atoms: C5_5  and  C4_4 
REMARK    4  A    between atoms: C6_6  and  C5_5 
REMARK    5  A    between atoms: C7_7  and  C6_6 
REMARK    6  A    between atoms: C8_8  and  C7_7 
REMARK    7  A    between atoms: C9_9  and  C8_8 
REMARK    8  A    between atoms: C10_10  and  C9_9 
REMARK    9  A    between atoms: C11_12  and  C10_10 
REMARK   10  A    between atoms: C11_12  and  C12_13 
REMARK       I    between atoms: C12_13  and  N1_15 
REMARK   11  A    between atoms: C13_16  and  N1_15 
ROOT
ATOM      1  C10 OHN d          39.961  15.653  -2.955  0.00  0.00     0.135 C 
ATOM      2  O1  OHN d          39.944  16.210  -4.039  0.00  0.00    -0.297 OA
ENDROOT
BRANCH   1   3
ATOM      3  C11 OHN d          40.689  16.234  -1.789  0.00  0.00     0.181 C 
BRANCH   3   4
ATOM      4  C12 OHN d          39.895  17.361  -1.182  0.00  0.00     0.225 C 
ATOM      5  N1  OHN d          39.505  18.368  -1.952  0.00  0.00    -0.347 N 
ATOM      6  H19 OHN d          39.746  18.414  -2.932  0.00  0.00     0.163 HD
ATOM      7  O2  OHN d          39.646  17.303  -0.001  0.00  0.00    -0.273 OA
BRANCH   5   8
ATOM      8  C13 OHN d          38.723  19.388  -1.316  0.00  0.00     0.186 C 
ATOM      9  C14 OHN d          38.179  19.014   0.061  0.00  0.00     0.062 C 
ATOM     10  C15 OHN d          38.300  20.257   0.959  0.00  0.00     0.181 C 
ATOM     11  O4  OHN d          39.265  21.079   0.329  0.00  0.00    -0.320 OA
ATOM     12  C16 OHN d          39.518  20.593  -0.986  0.00  0.00     0.281 C 
ATOM     13  O3  OHN d          40.285  21.125  -1.742  0.00  0.00    -0.263 OA
ENDBRANCH   5   8
ENDBRANCH   3   4
ENDBRANCH   1   3
BRANCH   1  14
ATOM     14  C9  OHN d          39.295  14.327  -2.776  0.00  0.00     0.079 C 
BRANCH  14  15
ATOM     15  C8  OHN d          38.024  14.430  -1.968  0.00  0.00     0.007 C 
BRANCH  15  16
ATOM     16  C7  OHN d          38.434  14.053  -0.554  0.00  0.00     0.000 C 
BRANCH  16  17
ATOM     17  C6  OHN d          38.982  12.622  -0.528  0.00  0.00     0.000 C 
BRANCH  17  18
ATOM     18  C5  OHN d          39.889  12.475   0.684  0.00  0.00     0.000 C 
BRANCH  18  19
ATOM     19  C4  OHN d          41.287  12.108   0.236  0.00  0.00     0.000 C 
BRANCH  19  20
ATOM     20  C3  OHN d          41.936  13.292  -0.454  0.00  0.00    -0.000 C 
BRANCH  20  21
ATOM     21  C2  OHN d          42.432  12.873  -1.818  0.00  0.00    -0.005 C 
ATOM     22  C1  OHN d          41.898  11.492  -2.083  0.00  0.00     0.005 C 
ENDBRANCH  20  21
ENDBRANCH  19  20
ENDBRANCH  18  19
ENDBRANCH  17  18
ENDBRANCH  16  17
ENDBRANCH  15  16
ENDBRANCH  14  15
ENDBRANCH   1  14
TORSDOF 11
ENDMDL
MODEL 11
REMARK VINA RESULT:      -5.5      8.247      9.649
REMARK  11 active torsions:
REMARK  status: ('A' for Active; 'I' for Inactive)
REMARK    1  A    between atoms: C3_3  and  C2_2 
REMARK    2  A    between atoms: C4_4  and  C3_3 
REMARK    3  A    between atoms: C5_5  and  C4_4 
REMARK    4  A    between atoms: C6_6  and  C5_5 
REMARK    5  A    between atoms: C7_7  and  C6_6 
REMARK    6  A    between atoms: C8_8  and  C7_7 
REMARK    7  A    between atoms: C9_9  and  C8_8 
REMARK    8  A    between atoms: C10_10  and  C9_9 
REMARK    9  A    between atoms: C11_12  and  C10_10 
REMARK   10  A    between atoms: C11_12  and  C12_13 
REMARK       I    between atoms: C12_13  and  N1_15 
REMARK   11  A    between atoms: C13_16  and  N1_15 
ROOT
ATOM      1  C10 OHN d          48.154  14.078  -4.669  0.00  0.00     0.135 C 
ATOM      2  O1  OHN d          48.395  14.974  -3.878  0.00  0.00    -0.297 OA
ENDROOT
BRANCH   1   3
ATOM      3  C11 OHN d          47.559  12.782  -4.226  0.00  0.00     0.181 C 
BRANCH   3   4
ATOM      4  C12 OHN d          48.645  11.804  -3.859  0.00  0.00     0.225 C 
ATOM      5  N1  OHN d          49.525  12.134  -2.923  0.00  0.00    -0.347 N 
ATOM      6  H19 OHN d          49.503  13.033  -2.463  0.00  0.00     0.163 HD
ATOM      7  O2  OHN d          48.673  10.748  -4.445  0.00  0.00    -0.273 OA
BRANCH   5   8
ATOM      8  C13 OHN d          50.509  11.141  -2.599  0.00  0.00     0.186 C 
ATOM      9  C14 OHN d          51.808  11.241  -3.396  0.00  0.00     0.062 C 
ATOM     10  C15 OHN d          52.967  10.947  -2.428  0.00  0.00     0.181 C 
ATOM     11  O4  OHN d          52.435  11.162  -1.133  0.00  0.00    -0.320 OA
ATOM     12  C16 OHN d          51.016  11.272  -1.215  0.00  0.00     0.281 C 
ATOM     13  O3  OHN d          50.319  11.437  -0.251  0.00  0.00    -0.263 OA
ENDBRANCH   5   8
ENDBRANCH   3   4
ENDBRANCH   1   3
BRANCH   1  14
ATOM     14  C9  OHN d          48.505  14.230  -6.114  0.00  0.00     0.079 C 
BRANCH  14  15
ATOM     15  C8  OHN d          49.981  14.043  -6.365  0.00  0.00     0.007 C 
BRANCH  15  16
ATOM     16  C7  OHN d          50.079  12.733  -7.131  0.00  0.00     0.000 C 
BRANCH  16  17
ATOM     17  C6  OHN d          48.808  12.509  -7.958  0.00  0.00     0.000 C 
BRANCH  17  18
ATOM     18  C5  OHN d          48.758  11.050  -8.381  0.00  0.00     0.000 C 
BRANCH  18  19
ATOM     19  C4  OHN d          47.402  10.467  -8.050  0.00  0.00     0.000 C 
BRANCH  19  20
ATOM     20  C3  OHN d          46.476  11.562  -7.555  0.00  0.00    -0.000 C 
BRANCH  20  21
ATOM     21  C2  OHN d          45.064  11.273  -8.009  0.00  0.00    -0.005 C 
ATOM     22  C1  OHN d          44.772  12.186  -9.167  0.00  0.00     0.005 C 
ENDBRANCH  20  21
ENDBRANCH  19  20
ENDBRANCH  18  19
ENDBRANCH  17  18
ENDBRANCH  16  17
ENDBRANCH  15  16
ENDBRANCH  14  15
ENDBRANCH   1  14
TORSDOF 11
ENDMDL
MODEL 12
REMARK VINA RESULT:      -5.5      4.195      7.824
REMARK  11 active torsions:
REMARK  status: ('A' for Active; 'I' for Inactive)
REMARK    1  A    between atoms: C3_3  and  C2_2 
REMARK    2  A    between atoms: C4_4  and  C3_3 
REMARK    3  A    between atoms: C5_5  and  C4_4 
REMARK    4  A    between atoms: C6_6  and  C5_5 
REMARK    5  A    between atoms: C7_7  and  C6_6 
REMARK    6  A    between atoms: C8_8  and  C7_7 
REMARK    7  A    between atoms: C9_9  and  C8_8 
REMARK    8  A    between atoms: C10_10  and  C9_9 
REMARK    9  A    between atoms: C11_12  and  C10_10 
REMARK   10  A    between atoms: C11_12  and  C12_13 
REMARK       I    between atoms: C12_13  and  N1_15 
REMARK   11  A    between atoms: C13_16  and  N1_15 
ROOT
ATOM      1  C10 OHN d          38.975  15.101  -1.452  0.00  0.00     0.135 C 
ATOM      2  O1  OHN d          37.769  14.928  -1.454  0.00  0.00    -0.297 OA
ENDROOT
BRANCH   1   3
ATOM      3  C11 OHN d          39.675  15.721  -0.288  0.00  0.00     0.181 C 
BRANCH   3   4
ATOM      4  C12 OHN d          39.281  17.168  -0.148  0.00  0.00     0.225 C 
ATOM      5  N1  OHN d          38.739  17.796  -1.183  0.00  0.00    -0.347 N 
ATOM      6  H19 OHN d          38.604  17.338  -2.073  0.00  0.00     0.163 HD
ATOM      7  O2  OHN d          39.482  17.706   0.915  0.00  0.00    -0.273 OA
BRANCH   5   8
ATOM      8  C13 OHN d          38.356  19.161  -0.968  0.00  0.00     0.186 C 
ATOM      9  C14 OHN d          37.948  19.495   0.465  0.00  0.00     0.062 C 
ATOM     10  C15 OHN d          38.524  20.881   0.799  0.00  0.00     0.181 C 
ATOM     11  O4  OHN d          39.564  21.088  -0.139  0.00  0.00    -0.320 OA
ATOM     12  C16 OHN d          39.479  20.106  -1.168  0.00  0.00     0.281 C 
ATOM     13  O3  OHN d          40.235  20.071  -2.100  0.00  0.00    -0.263 OA
ENDBRANCH   5   8
ENDBRANCH   3   4
ENDBRANCH   1   3
BRANCH   1  14
ATOM     14  C9  OHN d          39.792  14.750  -2.654  0.00  0.00     0.079 C 
BRANCH  14  15
ATOM     15  C8  OHN d          41.097  15.508  -2.699  0.00  0.00     0.007 C 
BRANCH  15  16
ATOM     16  C7  OHN d          42.086  14.617  -1.965  0.00  0.00     0.000 C 
BRANCH  16  17
ATOM     17  C6  OHN d          41.627  13.156  -2.028  0.00  0.00     0.000 C 
BRANCH  17  18
ATOM     18  C5  OHN d          41.847  12.522  -0.663  0.00  0.00     0.000 C 
BRANCH  18  19
ATOM     19  C4  OHN d          40.650  11.673  -0.295  0.00  0.00     0.000 C 
BRANCH  19  20
ATOM     20  C3  OHN d          41.057  10.614   0.711  0.00  0.00    -0.000 C 
BRANCH  20  21
ATOM     21  C2  OHN d          41.171  11.237   2.083  0.00  0.00    -0.005 C 
ATOM     22  C1  OHN d          40.219  12.401   2.125  0.00  0.00     0.005 C 
ENDBRANCH  20  21
ENDBRANCH  19  20
ENDBRANCH  18  19
ENDBRANCH  17  18
ENDBRANCH  16  17
ENDBRANCH  15  16
ENDBRANCH  14  15
ENDBRANCH   1  14
TORSDOF 11
ENDMDL
MODEL 13
REMARK VINA RESULT:      -5.4     10.327     11.509
REMARK  11 active torsions:
REMARK  status: ('A' for Active; 'I' for Inactive)
REMARK    1  A    between atoms: C3_3  and  C2_2 
REMARK    2  A    between atoms: C4_4  and  C3_3 
REMARK    3  A    between atoms: C5_5  and  C4_4 
REMARK    4  A    between atoms: C6_6  and  C5_5 
REMARK    5  A    between atoms: C7_7  and  C6_6 
REMARK    6  A    between atoms: C8_8  and  C7_7 
REMARK    7  A    between atoms: C9_9  and  C8_8 
REMARK    8  A    between atoms: C10_10  and  C9_9 
REMARK    9  A    between atoms: C11_12  and  C10_10 
REMARK   10  A    between atoms: C11_12  and  C12_13 
REMARK       I    between atoms: C12_13  and  N1_15 
REMARK   11  A    between atoms: C13_16  and  N1_15 
ROOT
ATOM      1  C10 OHN d          52.476  13.500  -4.968  0.00  0.00     0.135 C 
ATOM      2  O1  OHN d          53.444  14.089  -4.519  0.00  0.00    -0.297 OA
ENDROOT
BRANCH   1   3
ATOM      3  C11 OHN d          52.457  12.013  -5.100  0.00  0.00     0.181 C 
BRANCH   3   4
ATOM      4  C12 OHN d          52.825  11.364  -3.791  0.00  0.00     0.225 C 
ATOM      5  N1  OHN d          52.491  11.962  -2.655  0.00  0.00    -0.347 N 
ATOM      6  H19 OHN d          52.017  12.853  -2.641  0.00  0.00     0.163 HD
ATOM      7  O2  OHN d          53.421  10.315  -3.831  0.00  0.00    -0.273 OA
BRANCH   5   8
ATOM      8  C13 OHN d          52.841  11.271  -1.448  0.00  0.00     0.186 C 
ATOM      9  C14 OHN d          54.086  11.803  -0.741  0.00  0.00     0.062 C 
ATOM     10  C15 OHN d          53.805  11.777   0.771  0.00  0.00     0.181 C 
ATOM     11  O4  OHN d          52.395  11.725   0.887  0.00  0.00    -0.320 OA
ATOM     12  C16 OHN d          51.824  11.430  -0.385  0.00  0.00     0.281 C 
ATOM     13  O3  OHN d          50.641  11.311  -0.556  0.00  0.00    -0.263 OA
ENDBRANCH   5   8
ENDBRANCH   3   4
ENDBRANCH   1   3
BRANCH   1  14
ATOM     14  C9  OHN d          51.288  14.262  -5.461  0.00  0.00     0.079 C 
BRANCH  14  15
ATOM     15  C8  OHN d          50.665  13.624  -6.679  0.00  0.00     0.007 C 
BRANCH  15  16
ATOM     16  C7  OHN d          49.171  13.853  -6.513  0.00  0.00     0.000 C 
BRANCH  16  17
ATOM     17  C6  OHN d          48.897  14.625  -5.218  0.00  0.00     0.000 C 
BRANCH  17  18
ATOM     18  C5  OHN d          47.816  13.892  -4.439  0.00  0.00     0.000 C 
BRANCH  18  19
ATOM     19  C4  OHN d          47.988  12.398  -4.608  0.00  0.00     0.000 C 
BRANCH  19  20
ATOM     20  C3  OHN d          48.808  11.839  -3.462  0.00  0.00    -0.000 C 
BRANCH  20  21
ATOM     21  C2  OHN d          49.317  10.464  -3.828  0.00  0.00    -0.005 C 
ATOM     22  C1  OHN d          49.098  10.286  -5.305  0.00  0.00     0.005 C 
ENDBRANCH  20  21
ENDBRANCH  19  20
ENDBRANCH  18  19
ENDBRANCH  17  18
ENDBRANCH  16  17
ENDBRANCH  15  16
ENDBRANCH  14  15
ENDBRANCH   1  14
TORSDOF 11
ENDMDL
MODEL 14
REMARK VINA RESULT:      -5.3      9.633     10.684
REMARK  11 active torsions:
REMARK  status: ('A' for Active; 'I' for Inactive)
REMARK    1  A    between atoms: C3_3  and  C2_2 
REMARK    2  A    between atoms: C4_4  and  C3_3 
REMARK    3  A    between atoms: C5_5  and  C4_4 
REMARK    4  A    between atoms: C6_6  and  C5_5 
REMARK    5  A    between atoms: C7_7  and  C6_6 
REMARK    6  A    between atoms: C8_8  and  C7_7 
REMARK    7  A    between atoms: C9_9  and  C8_8 
REMARK    8  A    between atoms: C10_10  and  C9_9 
REMARK    9  A    between atoms: C11_12  and  C10_10 
REMARK   10  A    between atoms: C11_12  and  C12_13 
REMARK       I    between atoms: C12_13  and  N1_15 
REMARK   11  A    between atoms: C13_16  and  N1_15 
ROOT
ATOM      1  C10 OHN d          49.639  10.695  -4.186  0.00  0.00     0.135 C 
ATOM      2  O1  OHN d          49.276   9.705  -4.797  0.00  0.00    -0.297 OA
ENDROOT
BRANCH   1   3
ATOM      3  C11 OHN d          51.085  11.012  -3.998  0.00  0.00     0.181 C 
BRANCH   3   4
ATOM      4  C12 OHN d          51.521  10.669  -2.597  0.00  0.00     0.225 C 
ATOM      5  N1  OHN d          51.874  11.645  -1.770  0.00  0.00    -0.347 N 
ATOM      6  H19 OHN d          51.882  12.612  -2.060  0.00  0.00     0.163 HD
ATOM      7  O2  OHN d          51.536   9.503  -2.280  0.00  0.00    -0.273 OA
BRANCH   5   8
ATOM      8  C13 OHN d          52.242  11.249  -0.442  0.00  0.00     0.186 C 
ATOM      9  C14 OHN d          53.693  11.541  -0.064  0.00  0.00     0.062 C 
ATOM     10  C15 OHN d          53.701  12.033   1.393  0.00  0.00     0.181 C 
ATOM     11  O4  OHN d          52.375  12.460   1.650  0.00  0.00    -0.320 OA
ATOM     12  C16 OHN d          51.521  12.012   0.601  0.00  0.00     0.281 C 
ATOM     13  O3  OHN d          50.339  12.226   0.588  0.00  0.00    -0.263 OA
ENDBRANCH   5   8
ENDBRANCH   3   4
ENDBRANCH   1   3
BRANCH   1  14
ATOM     14  C9  OHN d          48.635  11.599  -3.546  0.00  0.00     0.079 C 
BRANCH  14  15
ATOM     15  C8  OHN d          47.724  12.248  -4.560  0.00  0.00     0.007 C 
BRANCH  15  16
ATOM     16  C7  OHN d          48.005  13.737  -4.433  0.00  0.00     0.000 C 
BRANCH  16  17
ATOM     17  C6  OHN d          48.538  14.288  -5.760  0.00  0.00     0.000 C 
BRANCH  17  18
ATOM     18  C5  OHN d          50.054  14.171  -5.757  0.00  0.00     0.000 C 
BRANCH  18  19
ATOM     19  C4  OHN d          50.523  13.559  -7.058  0.00  0.00     0.000 C 
BRANCH  19  20
ATOM     20  C3  OHN d          49.345  12.963  -7.804  0.00  0.00    -0.000 C 
BRANCH  20  21
ATOM     21  C2  OHN d          49.497  11.461  -7.872  0.00  0.00    -0.005 C 
ATOM     22  C1  OHN d          50.963  11.154  -7.737  0.00  0.00     0.005 C 
ENDBRANCH  20  21
ENDBRANCH  19  20
ENDBRANCH  18  19
ENDBRANCH  17  18
ENDBRANCH  16  17
ENDBRANCH  15  16
ENDBRANCH  14  15
ENDBRANCH   1  14
TORSDOF 11
ENDMDL
MODEL 15
REMARK VINA RESULT:      -5.3      9.469     10.764
REMARK  11 active torsions:
REMARK  status: ('A' for Active; 'I' for Inactive)
REMARK    1  A    between atoms: C3_3  and  C2_2 
REMARK    2  A    between atoms: C4_4  and  C3_3 
REMARK    3  A    between atoms: C5_5  and  C4_4 
REMARK    4  A    between atoms: C6_6  and  C5_5 
REMARK    5  A    between atoms: C7_7  and  C6_6 
REMARK    6  A    between atoms: C8_8  and  C7_7 
REMARK    7  A    between atoms: C9_9  and  C8_8 
REMARK    8  A    between atoms: C10_10  and  C9_9 
REMARK    9  A    between atoms: C11_12  and  C10_10 
REMARK   10  A    between atoms: C11_12  and  C12_13 
REMARK       I    between atoms: C12_13  and  N1_15 
REMARK   11  A    between atoms: C13_16  and  N1_15 
ROOT
ATOM      1  C10 OHN d          49.346  11.237  -3.942  0.00  0.00     0.135 C 
ATOM      2  O1  OHN d          48.820  11.826  -3.013  0.00  0.00    -0.297 OA
ENDROOT
BRANCH   1   3
ATOM      3  C11 OHN d          50.822  11.020  -3.995  0.00  0.00     0.181 C 
BRANCH   3   4
ATOM      4  C12 OHN d          51.351  10.668  -2.630  0.00  0.00     0.225 C 
ATOM      5  N1  OHN d          51.683  11.642  -1.792  0.00  0.00    -0.347 N 
ATOM      6  H19 OHN d          51.614  12.615  -2.052  0.00  0.00     0.163 HD
ATOM      7  O2  OHN d          51.457   9.497  -2.351  0.00  0.00    -0.273 OA
BRANCH   5   8
ATOM      8  C13 OHN d          52.146  11.234  -0.497  0.00  0.00     0.186 C 
ATOM      9  C14 OHN d          53.621  11.519  -0.223  0.00  0.00     0.062 C 
ATOM     10  C15 OHN d          53.736  11.999   1.234  0.00  0.00     0.181 C 
ATOM     11  O4  OHN d          52.434  12.428   1.589  0.00  0.00    -0.320 OA
ATOM     12  C16 OHN d          51.504  11.992   0.601  0.00  0.00     0.281 C 
ATOM     13  O3  OHN d          50.325  12.209   0.675  0.00  0.00    -0.263 OA
ENDBRANCH   5   8
ENDBRANCH   3   4
ENDBRANCH   1   3
BRANCH   1  14
ATOM     14  C9  OHN d          48.525  10.761  -5.097  0.00  0.00     0.079 C 
BRANCH  14  15
ATOM     15  C8  OHN d          49.289   9.809  -5.986  0.00  0.00     0.007 C 
BRANCH  15  16
ATOM     16  C7  OHN d          49.124  10.373  -7.388  0.00  0.00     0.000 C 
BRANCH  16  17
ATOM     17  C6  OHN d          48.613  11.816  -7.318  0.00  0.00     0.000 C 
BRANCH  17  18
ATOM     18  C5  OHN d          49.714  12.743  -7.811  0.00  0.00     0.000 C 
BRANCH  18  19
ATOM     19  C4  OHN d          49.994  13.803  -6.769  0.00  0.00     0.000 C 
BRANCH  19  20
ATOM     20  C3  OHN d          48.696  14.253  -6.127  0.00  0.00    -0.000 C 
BRANCH  20  21
ATOM     21  C2  OHN d          48.989  14.881  -4.784  0.00  0.00    -0.005 C 
ATOM     22  C1  OHN d          47.691  15.425  -4.253  0.00  0.00     0.005 C 
ENDBRANCH  20  21
ENDBRANCH  19  20
ENDBRANCH  18  19
ENDBRANCH  17  18
ENDBRANCH  16  17
ENDBRANCH  15  16
ENDBRANCH  14  15
ENDBRANCH   1  14
TORSDOF 11
ENDMDL
MODEL 16
REMARK VINA RESULT:      -5.3      9.972     12.290
REMARK  11 active torsions:
REMARK  status: ('A' for Active; 'I' for Inactive)
REMARK    1  A    between atoms: C3_3  and  C2_2 
REMARK    2  A    between atoms: C4_4  and  C3_3 
REMARK    3  A    between atoms: C5_5  and  C4_4 
REMARK    4  A    between atoms: C6_6  and  C5_5 
REMARK    5  A    between atoms: C7_7  and  C6_6 
REMARK    6  A    between atoms: C8_8  and  C7_7 
REMARK    7  A    between atoms: C9_9  and  C8_8 
REMARK    8  A    between atoms: C10_10  and  C9_9 
REMARK    9  A    between atoms: C11_12  and  C10_10 
REMARK   10  A    between atoms: C11_12  and  C12_13 
REMARK       I    between atoms: C12_13  and  N1_15 
REMARK   11  A    between atoms: C13_16  and  N1_15 
ROOT
ATOM      1  C10 OHN d          48.252  14.099  -4.793  0.00  0.00     0.135 C 
ATOM      2  O1  OHN d          48.342  15.022  -4.002  0.00  0.00    -0.297 OA
ENDROOT
BRANCH   1   3
ATOM      3  C11 OHN d          48.659  14.250  -6.221  0.00  0.00     0.181 C 
BRANCH   3   4
ATOM      4  C12 OHN d          50.147  14.066  -6.366  0.00  0.00     0.225 C 
ATOM      5  N1  OHN d          50.961  14.649  -5.495  0.00  0.00    -0.347 N 
ATOM      6  H19 OHN d          50.613  15.234  -4.749  0.00  0.00     0.163 HD
ATOM      7  O2  OHN d          50.545  13.390  -7.285  0.00  0.00    -0.273 OA
BRANCH   5   8
ATOM      8  C13 OHN d          52.362  14.401  -5.672  0.00  0.00     0.186 C 
ATOM      9  C14 OHN d          53.257  15.628  -5.508  0.00  0.00     0.062 C 
ATOM     10  C15 OHN d          54.519  15.182  -4.750  0.00  0.00     0.181 C 
ATOM     11  O4  OHN d          54.159  13.972  -4.108  0.00  0.00    -0.320 OA
ATOM     12  C16 OHN d          52.919  13.507  -4.632  0.00  0.00     0.281 C 
ATOM     13  O3  OHN d          52.400  12.485  -4.270  0.00  0.00    -0.263 OA
ENDBRANCH   5   8
ENDBRANCH   3   4
ENDBRANCH   1   3
BRANCH   1  14
ATOM     14  C9  OHN d          47.669  12.791  -4.366  0.00  0.00     0.079 C 
BRANCH  14  15
ATOM     15  C8  OHN d          48.675  11.924  -3.647  0.00  0.00     0.007 C 
BRANCH  15  16
ATOM     16  C7  OHN d          49.060  10.859  -4.661  0.00  0.00     0.000 C 
BRANCH  16  17
ATOM     17  C6  OHN d          50.053   9.872  -4.037  0.00  0.00     0.000 C 
BRANCH  17  18
ATOM     18  C5  OHN d          50.156  10.166  -2.549  0.00  0.00     0.000 C 
BRANCH  18  19
ATOM     19  C4  OHN d          51.567   9.903  -2.072  0.00  0.00     0.000 C 
BRANCH  19  20
ATOM     20  C3  OHN d          52.023  11.025  -1.159  0.00  0.00    -0.000 C 
BRANCH  20  21
ATOM     21  C2  OHN d          50.899  11.402  -0.222  0.00  0.00    -0.005 C 
ATOM     22  C1  OHN d          51.523  12.022   0.998  0.00  0.00     0.005 C 
ENDBRANCH  20  21
ENDBRANCH  19  20
ENDBRANCH  18  19
ENDBRANCH  17  18
ENDBRANCH  16  17
ENDBRANCH  15  16
ENDBRANCH  14  15
ENDBRANCH   1  14
TORSDOF 11
ENDMDL
MODEL 17
REMARK VINA RESULT:      -5.3     10.378     11.570
REMARK  11 active torsions:
REMARK  status: ('A' for Active; 'I' for Inactive)
REMARK    1  A    between atoms: C3_3  and  C2_2 
REMARK    2  A    between atoms: C4_4  and  C3_3 
REMARK    3  A    between atoms: C5_5  and  C4_4 
REMARK    4  A    between atoms: C6_6  and  C5_5 
REMARK    5  A    between atoms: C7_7  and  C6_6 
REMARK    6  A    between atoms: C8_8  and  C7_7 
REMARK    7  A    between atoms: C9_9  and  C8_8 
REMARK    8  A    between atoms: C10_10  and  C9_9 
REMARK    9  A    between atoms: C11_12  and  C10_10 
REMARK   10  A    between atoms: C11_12  and  C12_13 
REMARK       I    between atoms: C12_13  and  N1_15 
REMARK   11  A    between atoms: C13_16  and  N1_15 
ROOT
ATOM      1  C10 OHN d          51.848  13.820  -5.249  0.00  0.00     0.135 C 
ATOM      2  O1  OHN d          52.815  14.518  -4.999  0.00  0.00    -0.297 OA
ENDROOT
BRANCH   1   3
ATOM      3  C11 OHN d          51.989  12.359  -5.524  0.00  0.00     0.181 C 
BRANCH   3   4
ATOM      4  C12 OHN d          52.640  11.665  -4.357  0.00  0.00     0.225 C 
ATOM      5  N1  OHN d          52.482  12.161  -3.137  0.00  0.00    -0.347 N 
ATOM      6  H19 OHN d          51.956  13.007  -2.969  0.00  0.00     0.163 HD
ATOM      7  O2  OHN d          53.293  10.673  -4.583  0.00  0.00    -0.273 OA
BRANCH   5   8
ATOM      8  C13 OHN d          53.100  11.429  -2.069  0.00  0.00     0.186 C 
ATOM      9  C14 OHN d          54.393  12.042  -1.535  0.00  0.00     0.062 C 
ATOM     10  C15 OHN d          54.383  11.881  -0.005  0.00  0.00     0.181 C 
ATOM     11  O4  OHN d          53.025  11.669   0.338  0.00  0.00    -0.320 OA
ATOM     12  C16 OHN d          52.273  11.404  -0.842  0.00  0.00     0.281 C 
ATOM     13  O3  OHN d          51.095  11.170  -0.825  0.00  0.00    -0.263 OA
ENDBRANCH   5   8
ENDBRANCH   3   4
ENDBRANCH   1   3
BRANCH   1  14
ATOM     14  C9  OHN d          50.484  14.423  -5.348  0.00  0.00     0.079 C 
BRANCH  14  15
ATOM     15  C8  OHN d          49.666  13.806  -6.456  0.00  0.00     0.007 C 
BRANCH  15  16
ATOM     16  C7  OHN d          48.222  13.979  -6.011  0.00  0.00     0.000 C 
BRANCH  16  17
ATOM     17  C6  OHN d          48.101  13.728  -4.504  0.00  0.00     0.000 C 
BRANCH  17  18
ATOM     18  C5  OHN d          47.786  12.257  -4.283  0.00  0.00     0.000 C 
BRANCH  18  19
ATOM     19  C4  OHN d          48.849  11.633  -3.407  0.00  0.00     0.000 C 
BRANCH  19  20
ATOM     20  C3  OHN d          49.308  10.318  -4.007  0.00  0.00    -0.000 C 
BRANCH  20  21
ATOM     21  C2  OHN d          48.929  10.271  -5.470  0.00  0.00    -0.005 C 
ATOM     22  C1  OHN d          49.656   9.106  -6.083  0.00  0.00     0.005 C 
ENDBRANCH  20  21
ENDBRANCH  19  20
ENDBRANCH  18  19
ENDBRANCH  17  18
ENDBRANCH  16  17
ENDBRANCH  15  16
ENDBRANCH  14  15
ENDBRANCH   1  14
TORSDOF 11
ENDMDL
MODEL 18
REMARK VINA RESULT:      -5.2      8.643     10.482
REMARK  11 active torsions:
REMARK  status: ('A' for Active; 'I' for Inactive)
REMARK    1  A    between atoms: C3_3  and  C2_2 
REMARK    2  A    between atoms: C4_4  and  C3_3 
REMARK    3  A    between atoms: C5_5  and  C4_4 
REMARK    4  A    between atoms: C6_6  and  C5_5 
REMARK    5  A    between atoms: C7_7  and  C6_6 
REMARK    6  A    between atoms: C8_8  and  C7_7 
REMARK    7  A    between atoms: C9_9  and  C8_8 
REMARK    8  A    between atoms: C10_10  and  C9_9 
REMARK    9  A    between atoms: C11_12  and  C10_10 
REMARK   10  A    between atoms: C11_12  and  C12_13 
REMARK       I    between atoms: C12_13  and  N1_15 
REMARK   11  A    between atoms: C13_16  and  N1_15 
ROOT
ATOM      1  C10 OHN d          46.031  11.167  -8.226  0.00  0.00     0.135 C 
ATOM      2  O1  OHN d          46.434  10.049  -8.496  0.00  0.00    -0.297 OA
ENDROOT
BRANCH   1   3
ATOM      3  C11 OHN d          44.708  11.661  -8.710  0.00  0.00     0.181 C 
BRANCH   3   4
ATOM      4  C12 OHN d          44.066  10.641  -9.614  0.00  0.00     0.225 C 
ATOM      5  N1  OHN d          43.367   9.648  -9.078  0.00  0.00    -0.347 N 
ATOM      6  H19 OHN d          43.272   9.542  -8.079  0.00  0.00     0.163 HD
ATOM      7  O2  OHN d          44.219  10.768 -10.806  0.00  0.00    -0.273 OA
BRANCH   5   8
ATOM      8  C13 OHN d          42.754   8.736 -10.000  0.00  0.00     0.186 C 
ATOM      9  C14 OHN d          43.459   7.388 -10.133  0.00  0.00     0.062 C 
ATOM     10  C15 OHN d          42.371   6.305 -10.230  0.00  0.00     0.181 C 
ATOM     11  O4  OHN d          41.202   6.902  -9.699  0.00  0.00    -0.320 OA
ATOM     12  C16 OHN d          41.406   8.306  -9.563  0.00  0.00     0.281 C 
ATOM     13  O3  OHN d          40.558   9.051  -9.153  0.00  0.00    -0.263 OA
ENDBRANCH   5   8
ENDBRANCH   3   4
ENDBRANCH   1   3
BRANCH   1  14
ATOM     14  C9  OHN d          46.887  12.111  -7.443  0.00  0.00     0.079 C 
BRANCH  14  15
ATOM     15  C8  OHN d          48.359  11.895  -7.702  0.00  0.00     0.007 C 
BRANCH  15  16
ATOM     16  C7  OHN d          49.051  13.023  -6.953  0.00  0.00     0.000 C 
BRANCH  16  17
ATOM     17  C6  OHN d          48.132  13.568  -5.855  0.00  0.00     0.000 C 
BRANCH  17  18
ATOM     18  C5  OHN d          48.776  13.293  -4.505  0.00  0.00     0.000 C 
BRANCH  18  19
ATOM     19  C4  OHN d          48.144  12.071  -3.877  0.00  0.00     0.000 C 
BRANCH  19  20
ATOM     20  C3  OHN d          49.215  11.054  -3.531  0.00  0.00    -0.000 C 
BRANCH  20  21
ATOM     21  C2  OHN d          49.343  10.053  -4.657  0.00  0.00    -0.005 C 
ATOM     22  C1  OHN d          50.781  10.058  -5.096  0.00  0.00     0.005 C 
ENDBRANCH  20  21
ENDBRANCH  19  20
ENDBRANCH  18  19
ENDBRANCH  17  18
ENDBRANCH  16  17
ENDBRANCH  15  16
ENDBRANCH  14  15
ENDBRANCH   1  14
TORSDOF 11
ENDMDL
MODEL 19
REMARK VINA RESULT:      -5.2      9.400     11.258
REMARK  11 active torsions:
REMARK  status: ('A' for Active; 'I' for Inactive)
REMARK    1  A    between atoms: C3_3  and  C2_2 
REMARK    2  A    between atoms: C4_4  and  C3_3 
REMARK    3  A    between atoms: C5_5  and  C4_4 
REMARK    4  A    between atoms: C6_6  and  C5_5 
REMARK    5  A    between atoms: C7_7  and  C6_6 
REMARK    6  A    between atoms: C8_8  and  C7_7 
REMARK    7  A    between atoms: C9_9  and  C8_8 
REMARK    8  A    between atoms: C10_10  and  C9_9 
REMARK    9  A    between atoms: C11_12  and  C10_10 
REMARK   10  A    between atoms: C11_12  and  C12_13 
REMARK       I    between atoms: C12_13  and  N1_15 
REMARK   11  A    between atoms: C13_16  and  N1_15 
ROOT
ATOM      1  C10 OHN d          48.365  14.012  -4.693  0.00  0.00     0.135 C 
ATOM      2  O1  OHN d          48.460  14.930  -3.897  0.00  0.00    -0.297 OA
ENDROOT
BRANCH   1   3
ATOM      3  C11 OHN d          48.755  14.174  -6.125  0.00  0.00     0.181 C 
BRANCH   3   4
ATOM      4  C12 OHN d          50.248  14.048  -6.281  0.00  0.00     0.225 C 
ATOM      5  N1  OHN d          51.036  14.370  -5.264  0.00  0.00    -0.347 N 
ATOM      6  H19 OHN d          50.665  14.721  -4.393  0.00  0.00     0.163 HD
ATOM      7  O2  OHN d          50.672  13.657  -7.343  0.00  0.00    -0.273 OA
BRANCH   5   8
ATOM      8  C13 OHN d          52.444  14.191  -5.471  0.00  0.00     0.186 C 
ATOM      9  C14 OHN d          53.265  15.478  -5.448  0.00  0.00     0.062 C 
ATOM     10  C15 OHN d          54.575  15.178  -4.701  0.00  0.00     0.181 C 
ATOM     11  O4  OHN d          54.313  14.011  -3.943  0.00  0.00    -0.320 OA
ATOM     12  C16 OHN d          53.087  13.428  -4.378  0.00  0.00     0.281 C 
ATOM     13  O3  OHN d          52.645  12.414  -3.908  0.00  0.00    -0.263 OA
ENDBRANCH   5   8
ENDBRANCH   3   4
ENDBRANCH   1   3
BRANCH   1  14
ATOM     14  C9  OHN d          47.794  12.698  -4.267  0.00  0.00     0.079 C 
BRANCH  14  15
ATOM     15  C8  OHN d          48.845  11.774  -3.702  0.00  0.00     0.007 C 
BRANCH  15  16
ATOM     16  C7  OHN d          48.856  10.579  -4.643  0.00  0.00     0.000 C 
BRANCH  16  17
ATOM     17  C6  OHN d          50.227  10.450  -5.316  0.00  0.00     0.000 C 
BRANCH  17  18
ATOM     18  C5  OHN d          50.014  10.124  -6.786  0.00  0.00     0.000 C 
BRANCH  18  19
ATOM     19  C4  OHN d          48.580  10.413  -7.172  0.00  0.00     0.000 C 
BRANCH  19  20
ATOM     20  C3  OHN d          48.542  11.195  -8.470  0.00  0.00    -0.000 C 
BRANCH  20  21
ATOM     21  C2  OHN d          47.105  11.396  -8.896  0.00  0.00    -0.005 C 
ATOM     22  C1  OHN d          46.315  11.729  -7.661  0.00  0.00     0.005 C 
ENDBRANCH  20  21
ENDBRANCH  19  20
ENDBRANCH  18  19
ENDBRANCH  17  18
ENDBRANCH  16  17
ENDBRANCH  15  16
ENDBRANCH  14  15
ENDBRANCH   1  14
TORSDOF 11
ENDMDL
MODEL 20
REMARK VINA RESULT:      -5.2      9.813     10.876
REMARK  11 active torsions:
REMARK  status: ('A' for Active; 'I' for Inactive)
REMARK    1  A    between atoms: C3_3  and  C2_2 
REMARK    2  A    between atoms: C4_4  and  C3_3 
REMARK    3  A    between atoms: C5_5  and  C4_4 
REMARK    4  A    between atoms: C6_6  and  C5_5 
REMARK    5  A    between atoms: C7_7  and  C6_6 
REMARK    6  A    between atoms: C8_8  and  C7_7 
REMARK    7  A    between atoms: C9_9  and  C8_8 
REMARK    8  A    between atoms: C10_10  and  C9_9 
REMARK    9  A    between atoms: C11_12  and  C10_10 
REMARK   10  A    between atoms: C11_12  and  C12_13 
REMARK       I    between atoms: C12_13  and  N1_15 
REMARK   11  A    between atoms: C13_16  and  N1_15 
ROOT
ATOM      1  C10 OHN d          50.904  11.093  -4.337  0.00  0.00     0.135 C 
ATOM      2  O1  OHN d          51.321  12.192  -4.659  0.00  0.00    -0.297 OA
ENDROOT
BRANCH   1   3
ATOM      3  C11 OHN d          51.832   9.969  -4.014  0.00  0.00     0.181 C 
BRANCH   3   4
ATOM      4  C12 OHN d          52.095   9.914  -2.532  0.00  0.00     0.225 C 
ATOM      5  N1  OHN d          52.361  11.038  -1.879  0.00  0.00    -0.347 N 
ATOM      6  H19 OHN d          52.415  11.929  -2.351  0.00  0.00     0.163 HD
ATOM      7  O2  OHN d          52.059   8.834  -1.992  0.00  0.00    -0.273 OA
BRANCH   5   8
ATOM      8  C13 OHN d          52.566  10.917  -0.464  0.00  0.00     0.186 C 
ATOM      9  C14 OHN d          53.877  11.511   0.047  0.00  0.00     0.062 C 
ATOM     10  C15 OHN d          53.576  12.209   1.384  0.00  0.00     0.181 C 
ATOM     11  O4  OHN d          52.178  12.433   1.382  0.00  0.00    -0.320 OA
ATOM     12  C16 OHN d          51.580  11.691   0.323  0.00  0.00     0.281 C 
ATOM     13  O3  OHN d          50.397  11.691   0.114  0.00  0.00    -0.263 OA
ENDBRANCH   5   8
ENDBRANCH   3   4
ENDBRANCH   1   3
BRANCH   1  14
ATOM     14  C9  OHN d          49.435  10.818  -4.314  0.00  0.00     0.079 C 
BRANCH  14  15
ATOM     15  C8  OHN d          48.693  11.753  -3.392  0.00  0.00     0.007 C 
BRANCH  15  16
ATOM     16  C7  OHN d          47.767  12.542  -4.305  0.00  0.00     0.000 C 
BRANCH  16  17
ATOM     17  C6  OHN d          48.183  14.016  -4.332  0.00  0.00     0.000 C 
BRANCH  17  18
ATOM     18  C5  OHN d          48.666  14.356  -5.734  0.00  0.00     0.000 C 
BRANCH  18  19
ATOM     19  C4  OHN d          48.225  13.279  -6.701  0.00  0.00     0.000 C 
BRANCH  19  20
ATOM     20  C3  OHN d          49.391  12.863  -7.578  0.00  0.00    -0.000 C 
BRANCH  20  21
ATOM     21  C2  OHN d          49.232  11.414  -7.975  0.00  0.00    -0.005 C 
ATOM     22  C1  OHN d          47.800  11.034  -7.717  0.00  0.00     0.005 C 
ENDBRANCH  20  21
ENDBRANCH  19  20
ENDBRANCH  18  19
ENDBRANCH  17  18
ENDBRANCH  16  17
ENDBRANCH  15  16
ENDBRANCH  14  15
ENDBRANCH   1  14
TORSDOF 11
ENDMDL
