MODEL 1
REMARK VINA RESULT:      -4.7      0.000      0.000
REMARK  11 active torsions:
REMARK  status: ('A' for Active; 'I' for Inactive)
REMARK    1  A    between atoms: C3_3  and  C2_2 
REMARK    2  A    between atoms: C4_4  and  C3_3 
REMARK    3  A    between atoms: C5_5  and  C4_4 
REMARK    4  A    between atoms: C6_6  and  C5_5 
REMARK    5  A    between atoms: C7_7  and  C6_6 
REMARK    6  A    between atoms: C8_8  and  C7_7 
REMARK    7  A    between atoms: C9_9  and  C8_8 
REMARK    8  A    between atoms: C10_10  and  C9_9 
REMARK    9  A    between atoms: C11_12  and  C10_10 
REMARK   10  A    between atoms: C11_12  and  C12_13 
REMARK       I    between atoms: C12_13  and  N1_15 
REMARK   11  A    between atoms: C13_16  and  N1_15 
ROOT
ATOM      1  C10 OHN d          43.960   1.830   7.407  0.00  0.00     0.135 C 
ATOM      2  O1  OHN d          44.312   0.975   6.613  0.00  0.00    -0.297 OA
ENDROOT
BRANCH   1   3
ATOM      3  C11 OHN d          42.599   2.439   7.350  0.00  0.00     0.181 C 
BRANCH   3   4
ATOM      4  C12 OHN d          41.589   1.531   8.001  0.00  0.00     0.225 C 
ATOM      5  N1  OHN d          41.822   0.226   8.043  0.00  0.00    -0.347 N 
ATOM      6  H19 OHN d          42.648  -0.181   7.629  0.00  0.00     0.163 HD
ATOM      7  O2  OHN d          40.591   2.035   8.461  0.00  0.00    -0.273 OA
BRANCH   5   8
ATOM      8  C13 OHN d          40.835  -0.574   8.710  0.00  0.00     0.186 C 
ATOM      9  C14 OHN d          39.853  -1.285   7.783  0.00  0.00     0.062 C 
ATOM     10  C15 OHN d          39.612  -2.692   8.357  0.00  0.00     0.181 C 
ATOM     11  O4  OHN d          40.712  -2.938   9.214  0.00  0.00    -0.320 OA
ATOM     12  C16 OHN d          41.426  -1.724   9.430  0.00  0.00     0.281 C 
ATOM     13  O3  OHN d          42.394  -1.654  10.139  0.00  0.00    -0.263 OA
ENDBRANCH   5   8
ENDBRANCH   3   4
ENDBRANCH   1   3
BRANCH   1  14
ATOM     14  C9  OHN d          44.914   2.343   8.437  0.00  0.00     0.079 C 
BRANCH  14  15
ATOM     15  C8  OHN d          44.607   1.810   9.816  0.00  0.00     0.007 C 
BRANCH  15  16
ATOM     16  C7  OHN d          45.364   0.494   9.898  0.00  0.00     0.000 C 
BRANCH  16  17
ATOM     17  C6  OHN d          46.771   0.728  10.457  0.00  0.00     0.000 C 
BRANCH  17  18
ATOM     18  C5  OHN d          47.728  -0.239   9.779  0.00  0.00     0.000 C 
BRANCH  18  19
ATOM     19  C4  OHN d          48.406   0.445   8.612  0.00  0.00     0.000 C 
BRANCH  19  20
ATOM     20  C3  OHN d          48.690   1.894   8.957  0.00  0.00    -0.000 C 
BRANCH  20  21
ATOM     21  C2  OHN d          48.666   2.727   7.696  0.00  0.00    -0.005 C 
ATOM     22  C1  OHN d          47.987   1.909   6.633  0.00  0.00     0.005 C 
ENDBRANCH  20  21
ENDBRANCH  19  20
ENDBRANCH  18  19
ENDBRANCH  17  18
ENDBRANCH  16  17
ENDBRANCH  15  16
ENDBRANCH  14  15
ENDBRANCH   1  14
TORSDOF 11
ENDMDL
MODEL 2
REMARK VINA RESULT:      -4.7      1.523      2.935
REMARK  11 active torsions:
REMARK  status: ('A' for Active; 'I' for Inactive)
REMARK    1  A    between atoms: C3_3  and  C2_2 
REMARK    2  A    between atoms: C4_4  and  C3_3 
REMARK    3  A    between atoms: C5_5  and  C4_4 
REMARK    4  A    between atoms: C6_6  and  C5_5 
REMARK    5  A    between atoms: C7_7  and  C6_6 
REMARK    6  A    between atoms: C8_8  and  C7_7 
REMARK    7  A    between atoms: C9_9  and  C8_8 
REMARK    8  A    between atoms: C10_10  and  C9_9 
REMARK    9  A    between atoms: C11_12  and  C10_10 
REMARK   10  A    between atoms: C11_12  and  C12_13 
REMARK       I    between atoms: C12_13  and  N1_15 
REMARK   11  A    between atoms: C13_16  and  N1_15 
ROOT
ATOM      1  C10 OHN d          44.937   1.569   7.481  0.00  0.00     0.135 C 
ATOM      2  O1  OHN d          44.244   1.564   6.479  0.00  0.00    -0.297 OA
ENDROOT
BRANCH   1   3
ATOM      3  C11 OHN d          44.549   0.808   8.705  0.00  0.00     0.181 C 
BRANCH   3   4
ATOM      4  C12 OHN d          43.063   0.901   8.933  0.00  0.00     0.225 C 
ATOM      5  N1  OHN d          42.239   0.266   8.109  0.00  0.00    -0.347 N 
ATOM      6  H19 OHN d          42.579  -0.260   7.317  0.00  0.00     0.163 HD
ATOM      7  O2  OHN d          42.676   1.564   9.866  0.00  0.00    -0.273 OA
BRANCH   5   8
ATOM      8  C13 OHN d          40.840   0.370   8.406  0.00  0.00     0.186 C 
ATOM      9  C14 OHN d          40.121   1.528   7.718  0.00  0.00     0.062 C 
ATOM     10  C15 OHN d          38.742   1.015   7.271  0.00  0.00     0.181 C 
ATOM     11  O4  OHN d          38.859  -0.396   7.245  0.00  0.00    -0.320 OA
ATOM     12  C16 OHN d          40.063  -0.784   7.900  0.00  0.00     0.281 C 
ATOM     13  O3  OHN d          40.392  -1.932   8.033  0.00  0.00    -0.263 OA
ENDBRANCH   5   8
ENDBRANCH   3   4
ENDBRANCH   1   3
BRANCH   1  14
ATOM     14  C9  OHN d          46.181   2.396   7.536  0.00  0.00     0.079 C 
BRANCH  14  15
ATOM     15  C8  OHN d          47.308   1.788   6.736  0.00  0.00     0.007 C 
BRANCH  15  16
ATOM     16  C7  OHN d          48.436   2.803   6.825  0.00  0.00     0.000 C 
BRANCH  16  17
ATOM     17  C6  OHN d          48.564   3.324   8.260  0.00  0.00     0.000 C 
BRANCH  17  18
ATOM     18  C5  OHN d          49.860   2.793   8.853  0.00  0.00     0.000 C 
BRANCH  18  19
ATOM     19  C4  OHN d          49.573   1.568   9.693  0.00  0.00     0.000 C 
BRANCH  19  20
ATOM     20  C3  OHN d          48.373   1.821  10.584  0.00  0.00    -0.000 C 
BRANCH  20  21
ATOM     21  C2  OHN d          47.622   0.527  10.801  0.00  0.00    -0.005 C 
ATOM     22  C1  OHN d          47.923  -0.365   9.628  0.00  0.00     0.005 C 
ENDBRANCH  20  21
ENDBRANCH  19  20
ENDBRANCH  18  19
ENDBRANCH  17  18
ENDBRANCH  16  17
ENDBRANCH  15  16
ENDBRANCH  14  15
ENDBRANCH   1  14
TORSDOF 11
ENDMDL
MODEL 3
REMARK VINA RESULT:      -4.7      1.492      2.869
REMARK  11 active torsions:
REMARK  status: ('A' for Active; 'I' for Inactive)
REMARK    1  A    between atoms: C3_3  and  C2_2 
REMARK    2  A    between atoms: C4_4  and  C3_3 
REMARK    3  A    between atoms: C5_5  and  C4_4 
REMARK    4  A    between atoms: C6_6  and  C5_5 
REMARK    5  A    between atoms: C7_7  and  C6_6 
REMARK    6  A    between atoms: C8_8  and  C7_7 
REMARK    7  A    between atoms: C9_9  and  C8_8 
REMARK    8  A    between atoms: C10_10  and  C9_9 
REMARK    9  A    between atoms: C11_12  and  C10_10 
REMARK   10  A    between atoms: C11_12  and  C12_13 
REMARK       I    between atoms: C12_13  and  N1_15 
REMARK   11  A    between atoms: C13_16  and  N1_15 
ROOT
ATOM      1  C10 OHN d          44.663   1.210   7.834  0.00  0.00     0.135 C 
ATOM      2  O1  OHN d          44.181   1.049   6.727  0.00  0.00    -0.297 OA
ENDROOT
BRANCH   1   3
ATOM      3  C11 OHN d          44.301   0.327   8.982  0.00  0.00     0.181 C 
BRANCH   3   4
ATOM      4  C12 OHN d          42.811   0.332   9.199  0.00  0.00     0.225 C 
ATOM      5  N1  OHN d          42.011  -0.062   8.216  0.00  0.00    -0.347 N 
ATOM      6  H19 OHN d          42.372  -0.342   7.315  0.00  0.00     0.163 HD
ATOM      7  O2  OHN d          42.398   0.703  10.272  0.00  0.00    -0.273 OA
BRANCH   5   8
ATOM      8  C13 OHN d          40.606  -0.065   8.504  0.00  0.00     0.186 C 
ATOM      9  C14 OHN d          39.839   1.145   7.977  0.00  0.00     0.062 C 
ATOM     10  C15 OHN d          38.489   0.640   7.441  0.00  0.00     0.181 C 
ATOM     11  O4  OHN d          38.673  -0.746   7.217  0.00  0.00    -0.320 OA
ATOM     12  C16 OHN d          39.889  -1.169   7.827  0.00  0.00     0.281 C 
ATOM     13  O3  OHN d          40.270  -2.308   7.801  0.00  0.00    -0.263 OA
ENDBRANCH   5   8
ENDBRANCH   3   4
ENDBRANCH   1   3
BRANCH   1  14
ATOM     14  C9  OHN d          45.597   2.348   8.094  0.00  0.00     0.079 C 
BRANCH  14  15
ATOM     15  C8  OHN d          46.497   2.629   6.915  0.00  0.00     0.007 C 
BRANCH  15  16
ATOM     16  C7  OHN d          47.697   1.718   7.120  0.00  0.00     0.000 C 
BRANCH  16  17
ATOM     17  C6  OHN d          48.779   2.445   7.925  0.00  0.00     0.000 C 
BRANCH  17  18
ATOM     18  C5  OHN d          49.031   1.667   9.208  0.00  0.00     0.000 C 
BRANCH  18  19
ATOM     19  C4  OHN d          48.492   0.260   9.066  0.00  0.00     0.000 C 
BRANCH  19  20
ATOM     20  C3  OHN d          47.647  -0.093  10.275  0.00  0.00    -0.000 C 
BRANCH  20  21
ATOM     21  C2  OHN d          47.768   0.998  11.313  0.00  0.00    -0.005 C 
ATOM     22  C1  OHN d          46.383   1.282  11.827  0.00  0.00     0.005 C 
ENDBRANCH  20  21
ENDBRANCH  19  20
ENDBRANCH  18  19
ENDBRANCH  17  18
ENDBRANCH  16  17
ENDBRANCH  15  16
ENDBRANCH  14  15
ENDBRANCH   1  14
TORSDOF 11
ENDMDL
MODEL 4
REMARK VINA RESULT:      -4.7      1.330      2.515
REMARK  11 active torsions:
REMARK  status: ('A' for Active; 'I' for Inactive)
REMARK    1  A    between atoms: C3_3  and  C2_2 
REMARK    2  A    between atoms: C4_4  and  C3_3 
REMARK    3  A    between atoms: C5_5  and  C4_4 
REMARK    4  A    between atoms: C6_6  and  C5_5 
REMARK    5  A    between atoms: C7_7  and  C6_6 
REMARK    6  A    between atoms: C8_8  and  C7_7 
REMARK    7  A    between atoms: C9_9  and  C8_8 
REMARK    8  A    between atoms: C10_10  and  C9_9 
REMARK    9  A    between atoms: C11_12  and  C10_10 
REMARK   10  A    between atoms: C11_12  and  C12_13 
REMARK       I    between atoms: C12_13  and  N1_15 
REMARK   11  A    between atoms: C13_16  and  N1_15 
ROOT
ATOM      1  C10 OHN d          43.559   1.636   7.532  0.00  0.00     0.135 C 
ATOM      2  O1  OHN d          42.515   2.201   7.258  0.00  0.00    -0.297 OA
ENDROOT
BRANCH   1   3
ATOM      3  C11 OHN d          43.640   0.632   8.634  0.00  0.00     0.181 C 
BRANCH   3   4
ATOM      4  C12 OHN d          42.261   0.168   9.024  0.00  0.00     0.225 C 
ATOM      5  N1  OHN d          41.558  -0.564   8.170  0.00  0.00    -0.347 N 
ATOM      6  H19 OHN d          41.910  -0.799   7.254  0.00  0.00     0.163 HD
ATOM      7  O2  OHN d          41.845   0.489  10.112  0.00  0.00    -0.273 OA
BRANCH   5   8
ATOM      8  C13 OHN d          40.268  -1.001   8.622  0.00  0.00     0.186 C 
ATOM      9  C14 OHN d          39.159  -0.914   7.577  0.00  0.00     0.062 C 
ATOM     10  C15 OHN d          38.284  -2.170   7.726  0.00  0.00     0.181 C 
ATOM     11  O4  OHN d          39.090  -3.106   8.419  0.00  0.00    -0.320 OA
ATOM     12  C16 OHN d          40.238  -2.445   8.945  0.00  0.00     0.281 C 
ATOM     13  O3  OHN d          41.075  -3.011   9.595  0.00  0.00    -0.263 OA
ENDBRANCH   5   8
ENDBRANCH   3   4
ENDBRANCH   1   3
BRANCH   1  14
ATOM     14  C9  OHN d          44.818   1.979   6.803  0.00  0.00     0.079 C 
BRANCH  14  15
ATOM     15  C8  OHN d          45.850   2.606   7.709  0.00  0.00     0.007 C 
BRANCH  15  16
ATOM     16  C7  OHN d          47.082   2.773   6.833  0.00  0.00     0.000 C 
BRANCH  16  17
ATOM     17  C6  OHN d          48.043   1.599   7.046  0.00  0.00     0.000 C 
BRANCH  17  18
ATOM     18  C5  OHN d          48.456   1.572   8.509  0.00  0.00     0.000 C 
BRANCH  18  19
ATOM     19  C4  OHN d          48.410   0.151   9.027  0.00  0.00     0.000 C 
BRANCH  19  20
ATOM     20  C3  OHN d          47.166  -0.051   9.872  0.00  0.00    -0.000 C 
BRANCH  20  21
ATOM     21  C2  OHN d          47.282   0.759  11.143  0.00  0.00    -0.005 C 
ATOM     22  C1  OHN d          45.969   1.463  11.346  0.00  0.00     0.005 C 
ENDBRANCH  20  21
ENDBRANCH  19  20
ENDBRANCH  18  19
ENDBRANCH  17  18
ENDBRANCH  16  17
ENDBRANCH  15  16
ENDBRANCH  14  15
ENDBRANCH   1  14
TORSDOF 11
ENDMDL
MODEL 5
REMARK VINA RESULT:      -4.6      4.446      6.912
REMARK  11 active torsions:
REMARK  status: ('A' for Active; 'I' for Inactive)
REMARK    1  A    between atoms: C3_3  and  C2_2 
REMARK    2  A    between atoms: C4_4  and  C3_3 
REMARK    3  A    between atoms: C5_5  and  C4_4 
REMARK    4  A    between atoms: C6_6  and  C5_5 
REMARK    5  A    between atoms: C7_7  and  C6_6 
REMARK    6  A    between atoms: C8_8  and  C7_7 
REMARK    7  A    between atoms: C9_9  and  C8_8 
REMARK    8  A    between atoms: C10_10  and  C9_9 
REMARK    9  A    between atoms: C11_12  and  C10_10 
REMARK   10  A    between atoms: C11_12  and  C12_13 
REMARK       I    between atoms: C12_13  and  N1_15 
REMARK   11  A    between atoms: C13_16  and  N1_15 
ROOT
ATOM      1  C10 OHN d          39.448  -2.512   8.139  0.00  0.00     0.135 C 
ATOM      2  O1  OHN d          38.979  -3.393   8.838  0.00  0.00    -0.297 OA
ENDROOT
BRANCH   1   3
ATOM      3  C11 OHN d          38.791  -2.091   6.866  0.00  0.00     0.181 C 
BRANCH   3   4
ATOM      4  C12 OHN d          37.893  -3.185   6.351  0.00  0.00     0.225 C 
ATOM      5  N1  OHN d          38.436  -4.292   5.861  0.00  0.00    -0.347 N 
ATOM      6  H19 OHN d          39.436  -4.414   5.801  0.00  0.00     0.163 HD
ATOM      7  O2  OHN d          36.699  -3.005   6.401  0.00  0.00    -0.273 OA
BRANCH   5   8
ATOM      8  C13 OHN d          37.521  -5.306   5.422  0.00  0.00     0.186 C 
ATOM      9  C14 OHN d          37.793  -5.853   4.022  0.00  0.00     0.062 C 
ATOM     10  C15 OHN d          37.548  -7.371   4.064  0.00  0.00     0.181 C 
ATOM     11  O4  OHN d          37.630  -7.724   5.432  0.00  0.00    -0.320 OA
ATOM     12  C16 OHN d          37.611  -6.543   6.229  0.00  0.00     0.281 C 
ATOM     13  O3  OHN d          37.649  -6.567   7.430  0.00  0.00    -0.263 OA
ENDBRANCH   5   8
ENDBRANCH   3   4
ENDBRANCH   1   3
BRANCH   1  14
ATOM     14  C9  OHN d          40.741  -1.860   8.508  0.00  0.00     0.079 C 
BRANCH  14  15
ATOM     15  C8  OHN d          40.747  -1.371   9.936  0.00  0.00     0.007 C 
BRANCH  15  16
ATOM     16  C7  OHN d          41.940  -0.432  10.017  0.00  0.00     0.000 C 
BRANCH  16  17
ATOM     17  C6  OHN d          42.187   0.225   8.655  0.00  0.00     0.000 C 
BRANCH  17  18
ATOM     18  C5  OHN d          41.837   1.702   8.760  0.00  0.00     0.000 C 
BRANCH  18  19
ATOM     19  C4  OHN d          41.111   2.145   7.509  0.00  0.00     0.000 C 
BRANCH  19  20
ATOM     20  C3  OHN d          39.692   1.611   7.518  0.00  0.00    -0.000 C 
BRANCH  20  21
ATOM     21  C2  OHN d          39.014   1.998   8.812  0.00  0.00    -0.005 C 
ATOM     22  C1  OHN d          37.995   0.935   9.118  0.00  0.00     0.005 C 
ENDBRANCH  20  21
ENDBRANCH  19  20
ENDBRANCH  18  19
ENDBRANCH  17  18
ENDBRANCH  16  17
ENDBRANCH  15  16
ENDBRANCH  14  15
ENDBRANCH   1  14
TORSDOF 11
ENDMDL
MODEL 6
REMARK VINA RESULT:      -4.6      5.201      7.361
REMARK  11 active torsions:
REMARK  status: ('A' for Active; 'I' for Inactive)
REMARK    1  A    between atoms: C3_3  and  C2_2 
REMARK    2  A    between atoms: C4_4  and  C3_3 
REMARK    3  A    between atoms: C5_5  and  C4_4 
REMARK    4  A    between atoms: C6_6  and  C5_5 
REMARK    5  A    between atoms: C7_7  and  C6_6 
REMARK    6  A    between atoms: C8_8  and  C7_7 
REMARK    7  A    between atoms: C9_9  and  C8_8 
REMARK    8  A    between atoms: C10_10  and  C9_9 
REMARK    9  A    between atoms: C11_12  and  C10_10 
REMARK   10  A    between atoms: C11_12  and  C12_13 
REMARK       I    between atoms: C12_13  and  N1_15 
REMARK   11  A    between atoms: C13_16  and  N1_15 
ROOT
ATOM      1  C10 OHN d          38.857  -2.164   8.300  0.00  0.00     0.135 C 
ATOM      2  O1  OHN d          39.242  -3.207   8.800  0.00  0.00    -0.297 OA
ENDROOT
BRANCH   1   3
ATOM      3  C11 OHN d          38.633  -2.038   6.829  0.00  0.00     0.181 C 
BRANCH   3   4
ATOM      4  C12 OHN d          37.787  -3.179   6.327  0.00  0.00     0.225 C 
ATOM      5  N1  OHN d          38.380  -4.258   5.835  0.00  0.00    -0.347 N 
ATOM      6  H19 OHN d          39.385  -4.329   5.764  0.00  0.00     0.163 HD
ATOM      7  O2  OHN d          36.586  -3.060   6.390  0.00  0.00    -0.273 OA
BRANCH   5   8
ATOM      8  C13 OHN d          37.514  -5.319   5.408  0.00  0.00     0.186 C 
ATOM      9  C14 OHN d          37.826  -5.886   4.025  0.00  0.00     0.062 C 
ATOM     10  C15 OHN d          37.644  -7.411   4.099  0.00  0.00     0.181 C 
ATOM     11  O4  OHN d          37.723  -7.730   5.476  0.00  0.00    -0.320 OA
ATOM     12  C16 OHN d          37.646  -6.533   6.245  0.00  0.00     0.281 C 
ATOM     13  O3  OHN d          37.669  -6.527   7.447  0.00  0.00    -0.263 OA
ENDBRANCH   5   8
ENDBRANCH   3   4
ENDBRANCH   1   3
BRANCH   1  14
ATOM     14  C9  OHN d          38.655  -0.949   9.146  0.00  0.00     0.079 C 
BRANCH  14  15
ATOM     15  C8  OHN d          37.334  -0.273   8.868  0.00  0.00     0.007 C 
BRANCH  15  16
ATOM     16  C7  OHN d          37.285   0.894   9.842  0.00  0.00     0.000 C 
BRANCH  16  17
ATOM     17  C6  OHN d          38.682   1.166  10.409  0.00  0.00     0.000 C 
BRANCH  17  18
ATOM     18  C5  OHN d          38.866   2.670  10.539  0.00  0.00     0.000 C 
BRANCH  18  19
ATOM     19  C4  OHN d          39.799   3.167   9.458  0.00  0.00     0.000 C 
BRANCH  19  20
ATOM     20  C3  OHN d          40.609   2.012   8.903  0.00  0.00    -0.000 C 
BRANCH  20  21
ATOM     21  C2  OHN d          40.721   2.148   7.402  0.00  0.00    -0.005 C 
ATOM     22  C1  OHN d          39.325   2.091   6.843  0.00  0.00     0.005 C 
ENDBRANCH  20  21
ENDBRANCH  19  20
ENDBRANCH  18  19
ENDBRANCH  17  18
ENDBRANCH  16  17
ENDBRANCH  15  16
ENDBRANCH  14  15
ENDBRANCH   1  14
TORSDOF 11
ENDMDL
MODEL 7
REMARK VINA RESULT:      -4.6      3.706      6.341
REMARK  11 active torsions:
REMARK  status: ('A' for Active; 'I' for Inactive)
REMARK    1  A    between atoms: C3_3  and  C2_2 
REMARK    2  A    between atoms: C4_4  and  C3_3 
REMARK    3  A    between atoms: C5_5  and  C4_4 
REMARK    4  A    between atoms: C6_6  and  C5_5 
REMARK    5  A    between atoms: C7_7  and  C6_6 
REMARK    6  A    between atoms: C8_8  and  C7_7 
REMARK    7  A    between atoms: C9_9  and  C8_8 
REMARK    8  A    between atoms: C10_10  and  C9_9 
REMARK    9  A    between atoms: C11_12  and  C10_10 
REMARK   10  A    between atoms: C11_12  and  C12_13 
REMARK       I    between atoms: C12_13  and  N1_15 
REMARK   11  A    between atoms: C13_16  and  N1_15 
ROOT
ATOM      1  C10 OHN d          39.249  -2.444   8.114  0.00  0.00     0.135 C 
ATOM      2  O1  OHN d          38.910  -3.439   8.730  0.00  0.00    -0.297 OA
ENDROOT
BRANCH   1   3
ATOM      3  C11 OHN d          38.707  -2.142   6.757  0.00  0.00     0.181 C 
BRANCH   3   4
ATOM      4  C12 OHN d          37.830  -3.270   6.278  0.00  0.00     0.225 C 
ATOM      5  N1  OHN d          38.395  -4.367   5.792  0.00  0.00    -0.347 N 
ATOM      6  H19 OHN d          39.397  -4.461   5.711  0.00  0.00     0.163 HD
ATOM      7  O2  OHN d          36.633  -3.124   6.353  0.00  0.00    -0.273 OA
BRANCH   5   8
ATOM      8  C13 OHN d          37.501  -5.414   5.388  0.00  0.00     0.186 C 
ATOM      9  C14 OHN d          37.783  -6.002   4.007  0.00  0.00     0.062 C 
ATOM     10  C15 OHN d          37.570  -7.523   4.100  0.00  0.00     0.181 C 
ATOM     11  O4  OHN d          37.660  -7.828   5.480  0.00  0.00    -0.320 OA
ATOM     12  C16 OHN d          37.618  -6.621   6.237  0.00  0.00     0.281 C 
ATOM     13  O3  OHN d          37.657  -6.604   7.438  0.00  0.00    -0.263 OA
ENDBRANCH   5   8
ENDBRANCH   3   4
ENDBRANCH   1   3
BRANCH   1  14
ATOM     14  C9  OHN d          40.276  -1.516   8.680  0.00  0.00     0.079 C 
BRANCH  14  15
ATOM     15  C8  OHN d          40.253  -0.163   8.012  0.00  0.00     0.007 C 
BRANCH  15  16
ATOM     16  C7  OHN d          39.982   0.820   9.140  0.00  0.00     0.000 C 
BRANCH  16  17
ATOM     17  C6  OHN d          40.381   2.236   8.712  0.00  0.00     0.000 C 
BRANCH  17  18
ATOM     18  C5  OHN d          41.281   2.136   7.490  0.00  0.00     0.000 C 
BRANCH  18  19
ATOM     19  C4  OHN d          42.713   2.425   7.885  0.00  0.00     0.000 C 
BRANCH  19  20
ATOM     20  C3  OHN d          43.627   1.344   7.341  0.00  0.00    -0.000 C 
BRANCH  20  21
ATOM     21  C2  OHN d          44.544   0.859   8.440  0.00  0.00    -0.005 C 
ATOM     22  C1  OHN d          43.692   0.140   9.449  0.00  0.00     0.005 C 
ENDBRANCH  20  21
ENDBRANCH  19  20
ENDBRANCH  18  19
ENDBRANCH  17  18
ENDBRANCH  16  17
ENDBRANCH  15  16
ENDBRANCH  14  15
ENDBRANCH   1  14
TORSDOF 11
ENDMDL
MODEL 8
REMARK VINA RESULT:      -4.6      1.635      2.321
REMARK  11 active torsions:
REMARK  status: ('A' for Active; 'I' for Inactive)
REMARK    1  A    between atoms: C3_3  and  C2_2 
REMARK    2  A    between atoms: C4_4  and  C3_3 
REMARK    3  A    between atoms: C5_5  and  C4_4 
REMARK    4  A    between atoms: C6_6  and  C5_5 
REMARK    5  A    between atoms: C7_7  and  C6_6 
REMARK    6  A    between atoms: C8_8  and  C7_7 
REMARK    7  A    between atoms: C9_9  and  C8_8 
REMARK    8  A    between atoms: C10_10  and  C9_9 
REMARK    9  A    between atoms: C11_12  and  C10_10 
REMARK   10  A    between atoms: C11_12  and  C12_13 
REMARK       I    between atoms: C12_13  and  N1_15 
REMARK   11  A    between atoms: C13_16  and  N1_15 
ROOT
ATOM      1  C10 OHN d          44.911   1.794   7.514  0.00  0.00     0.135 C 
ATOM      2  O1  OHN d          44.490   1.111   6.597  0.00  0.00    -0.297 OA
ENDROOT
BRANCH   1   3
ATOM      3  C11 OHN d          44.205   3.034   7.954  0.00  0.00     0.181 C 
BRANCH   3   4
ATOM      4  C12 OHN d          42.798   2.713   8.385  0.00  0.00     0.225 C 
ATOM      5  N1  OHN d          42.007   2.035   7.563  0.00  0.00    -0.347 N 
ATOM      6  H19 OHN d          42.313   1.748   6.645  0.00  0.00     0.163 HD
ATOM      7  O2  OHN d          42.441   3.095   9.474  0.00  0.00    -0.273 OA
BRANCH   5   8
ATOM      8  C13 OHN d          40.693   1.734   8.053  0.00  0.00     0.186 C 
ATOM      9  C14 OHN d          39.551   2.188   7.147  0.00  0.00     0.062 C 
ATOM     10  C15 OHN d          38.482   1.082   7.161  0.00  0.00     0.181 C 
ATOM     11  O4  OHN d          39.156  -0.081   7.605  0.00  0.00    -0.320 OA
ATOM     12  C16 OHN d          40.432   0.279   8.126  0.00  0.00     0.281 C 
ATOM     13  O3  OHN d          41.198  -0.523   8.588  0.00  0.00    -0.263 OA
ENDBRANCH   5   8
ENDBRANCH   3   4
ENDBRANCH   1   3
BRANCH   1  14
ATOM     14  C9  OHN d          46.194   1.439   8.195  0.00  0.00     0.079 C 
BRANCH  14  15
ATOM     15  C8  OHN d          45.968   0.653   9.464  0.00  0.00     0.007 C 
BRANCH  15  16
ATOM     16  C7  OHN d          47.346   0.137   9.847  0.00  0.00     0.000 C 
BRANCH  16  17
ATOM     17  C6  OHN d          48.421   0.819   8.993  0.00  0.00     0.000 C 
BRANCH  17  18
ATOM     18  C5  OHN d          49.487   1.383   9.919  0.00  0.00     0.000 C 
BRANCH  18  19
ATOM     19  C4  OHN d          50.240   2.491   9.216  0.00  0.00     0.000 C 
BRANCH  19  20
ATOM     20  C3  OHN d          49.262   3.475   8.606  0.00  0.00    -0.000 C 
BRANCH  20  21
ATOM     21  C2  OHN d          49.725   3.854   7.218  0.00  0.00    -0.005 C 
ATOM     22  C1  OHN d          48.798   3.187   6.240  0.00  0.00     0.005 C 
ENDBRANCH  20  21
ENDBRANCH  19  20
ENDBRANCH  18  19
ENDBRANCH  17  18
ENDBRANCH  16  17
ENDBRANCH  15  16
ENDBRANCH  14  15
ENDBRANCH   1  14
TORSDOF 11
ENDMDL
MODEL 9
REMARK VINA RESULT:      -4.6      4.153      6.730
REMARK  11 active torsions:
REMARK  status: ('A' for Active; 'I' for Inactive)
REMARK    1  A    between atoms: C3_3  and  C2_2 
REMARK    2  A    between atoms: C4_4  and  C3_3 
REMARK    3  A    between atoms: C5_5  and  C4_4 
REMARK    4  A    between atoms: C6_6  and  C5_5 
REMARK    5  A    between atoms: C7_7  and  C6_6 
REMARK    6  A    between atoms: C8_8  and  C7_7 
REMARK    7  A    between atoms: C9_9  and  C8_8 
REMARK    8  A    between atoms: C10_10  and  C9_9 
REMARK    9  A    between atoms: C11_12  and  C10_10 
REMARK   10  A    between atoms: C11_12  and  C12_13 
REMARK       I    between atoms: C12_13  and  N1_15 
REMARK   11  A    between atoms: C13_16  and  N1_15 
ROOT
ATOM      1  C10 OHN d          38.965  -2.072   8.199  0.00  0.00     0.135 C 
ATOM      2  O1  OHN d          39.165  -3.132   8.768  0.00  0.00    -0.297 OA
ENDROOT
BRANCH   1   3
ATOM      3  C11 OHN d          38.722  -2.007   6.728  0.00  0.00     0.181 C 
BRANCH   3   4
ATOM      4  C12 OHN d          37.860  -3.161   6.286  0.00  0.00     0.225 C 
ATOM      5  N1  OHN d          38.438  -4.261   5.821  0.00  0.00    -0.347 N 
ATOM      6  H19 OHN d          39.440  -4.339   5.731  0.00  0.00     0.163 HD
ATOM      7  O2  OHN d          36.662  -3.033   6.370  0.00  0.00    -0.273 OA
BRANCH   5   8
ATOM      8  C13 OHN d          37.558  -5.332   5.452  0.00  0.00     0.186 C 
ATOM      9  C14 OHN d          37.865  -5.981   4.105  0.00  0.00     0.062 C 
ATOM     10  C15 OHN d          37.661  -7.497   4.265  0.00  0.00     0.181 C 
ATOM     11  O4  OHN d          37.731  -7.737   5.659  0.00  0.00    -0.320 OA
ATOM     12  C16 OHN d          37.669  -6.497   6.358  0.00  0.00     0.281 C 
ATOM     13  O3  OHN d          37.689  -6.423   7.557  0.00  0.00    -0.263 OA
ENDBRANCH   5   8
ENDBRANCH   3   4
ENDBRANCH   1   3
BRANCH   1  14
ATOM     14  C9  OHN d          39.019  -0.785   8.958  0.00  0.00     0.079 C 
BRANCH  14  15
ATOM     15  C8  OHN d          38.144   0.279   8.340  0.00  0.00     0.007 C 
BRANCH  15  16
ATOM     16  C7  OHN d          38.832   1.591   8.681  0.00  0.00     0.000 C 
BRANCH  16  17
ATOM     17  C6  OHN d          39.421   2.222   7.415  0.00  0.00     0.000 C 
BRANCH  17  18
ATOM     18  C5  OHN d          40.937   2.126   7.487  0.00  0.00     0.000 C 
BRANCH  18  19
ATOM     19  C4  OHN d          41.423   2.692   8.802  0.00  0.00     0.000 C 
BRANCH  19  20
ATOM     20  C3  OHN d          42.485   1.786   9.394  0.00  0.00    -0.000 C 
BRANCH  20  21
ATOM     21  C2  OHN d          42.593   0.526   8.566  0.00  0.00    -0.005 C 
ATOM     22  C1  OHN d          42.702  -0.629   9.523  0.00  0.00     0.005 C 
ENDBRANCH  20  21
ENDBRANCH  19  20
ENDBRANCH  18  19
ENDBRANCH  17  18
ENDBRANCH  16  17
ENDBRANCH  15  16
ENDBRANCH  14  15
ENDBRANCH   1  14
TORSDOF 11
ENDMDL
MODEL 10
REMARK VINA RESULT:      -4.6      2.511      3.855
REMARK  11 active torsions:
REMARK  status: ('A' for Active; 'I' for Inactive)
REMARK    1  A    between atoms: C3_3  and  C2_2 
REMARK    2  A    between atoms: C4_4  and  C3_3 
REMARK    3  A    between atoms: C5_5  and  C4_4 
REMARK    4  A    between atoms: C6_6  and  C5_5 
REMARK    5  A    between atoms: C7_7  and  C6_6 
REMARK    6  A    between atoms: C8_8  and  C7_7 
REMARK    7  A    between atoms: C9_9  and  C8_8 
REMARK    8  A    between atoms: C10_10  and  C9_9 
REMARK    9  A    between atoms: C11_12  and  C10_10 
REMARK   10  A    between atoms: C11_12  and  C12_13 
REMARK       I    between atoms: C12_13  and  N1_15 
REMARK   11  A    between atoms: C13_16  and  N1_15 
ROOT
ATOM      1  C10 OHN d          39.300   1.736   7.392  0.00  0.00     0.135 C 
ATOM      2  O1  OHN d          38.686   1.803   6.341  0.00  0.00    -0.297 OA
ENDROOT
BRANCH   1   3
ATOM      3  C11 OHN d          38.639   1.303   8.658  0.00  0.00     0.181 C 
BRANCH   3   4
ATOM      4  C12 OHN d          38.401  -0.184   8.645  0.00  0.00     0.225 C 
ATOM      5  N1  OHN d          38.020  -0.770   7.517  0.00  0.00    -0.347 N 
ATOM      6  H19 OHN d          37.860  -0.244   6.671  0.00  0.00     0.163 HD
ATOM      7  O2  OHN d          38.565  -0.790   9.677  0.00  0.00    -0.273 OA
BRANCH   5   8
ATOM      8  C13 OHN d          37.846  -2.193   7.569  0.00  0.00     0.186 C 
ATOM      9  C14 OHN d          36.607  -2.715   6.846  0.00  0.00     0.062 C 
ATOM     10  C15 OHN d          37.005  -4.016   6.128  0.00  0.00     0.181 C 
ATOM     11  O4  OHN d          38.416  -3.968   6.026  0.00  0.00    -0.320 OA
ATOM     12  C16 OHN d          38.917  -2.923   6.855  0.00  0.00     0.281 C 
ATOM     13  O3  OHN d          40.090  -2.684   6.965  0.00  0.00    -0.263 OA
ENDBRANCH   5   8
ENDBRANCH   3   4
ENDBRANCH   1   3
BRANCH   1  14
ATOM     14  C9  OHN d          40.736   2.148   7.457  0.00  0.00     0.079 C 
BRANCH  14  15
ATOM     15  C8  OHN d          41.259   2.173   8.872  0.00  0.00     0.007 C 
BRANCH  15  16
ATOM     16  C7  OHN d          42.740   2.489   8.730  0.00  0.00     0.000 C 
BRANCH  16  17
ATOM     17  C6  OHN d          43.174   2.337   7.268  0.00  0.00     0.000 C 
BRANCH  17  18
ATOM     18  C5  OHN d          44.247   1.262   7.193  0.00  0.00     0.000 C 
BRANCH  18  19
ATOM     19  C4  OHN d          45.614   1.907   7.147  0.00  0.00     0.000 C 
BRANCH  19  20
ATOM     20  C3  OHN d          46.413   1.514   8.375  0.00  0.00    -0.000 C 
BRANCH  20  21
ATOM     21  C2  OHN d          47.889   1.660   8.085  0.00  0.00    -0.005 C 
ATOM     22  C1  OHN d          48.024   2.055   6.640  0.00  0.00     0.005 C 
ENDBRANCH  20  21
ENDBRANCH  19  20
ENDBRANCH  18  19
ENDBRANCH  17  18
ENDBRANCH  16  17
ENDBRANCH  15  16
ENDBRANCH  14  15
ENDBRANCH   1  14
TORSDOF 11
ENDMDL
MODEL 11
REMARK VINA RESULT:      -4.6      3.139      4.821
REMARK  11 active torsions:
REMARK  status: ('A' for Active; 'I' for Inactive)
REMARK    1  A    between atoms: C3_3  and  C2_2 
REMARK    2  A    between atoms: C4_4  and  C3_3 
REMARK    3  A    between atoms: C5_5  and  C4_4 
REMARK    4  A    between atoms: C6_6  and  C5_5 
REMARK    5  A    between atoms: C7_7  and  C6_6 
REMARK    6  A    between atoms: C8_8  and  C7_7 
REMARK    7  A    between atoms: C9_9  and  C8_8 
REMARK    8  A    between atoms: C10_10  and  C9_9 
REMARK    9  A    between atoms: C11_12  and  C10_10 
REMARK   10  A    between atoms: C11_12  and  C12_13 
REMARK       I    between atoms: C12_13  and  N1_15 
REMARK   11  A    between atoms: C13_16  and  N1_15 
ROOT
ATOM      1  C10 OHN d          39.309   1.727   7.459  0.00  0.00     0.135 C 
ATOM      2  O1  OHN d          38.716   1.944   6.416  0.00  0.00    -0.297 OA
ENDROOT
BRANCH   1   3
ATOM      3  C11 OHN d          38.588   1.299   8.694  0.00  0.00     0.181 C 
BRANCH   3   4
ATOM      4  C12 OHN d          38.344  -0.187   8.672  0.00  0.00     0.225 C 
ATOM      5  N1  OHN d          38.024  -0.775   7.527  0.00  0.00    -0.347 N 
ATOM      6  H19 OHN d          37.915  -0.250   6.671  0.00  0.00     0.163 HD
ATOM      7  O2  OHN d          38.447  -0.791   9.714  0.00  0.00    -0.273 OA
BRANCH   5   8
ATOM      8  C13 OHN d          37.842  -2.197   7.573  0.00  0.00     0.186 C 
ATOM      9  C14 OHN d          36.620  -2.712   6.816  0.00  0.00     0.062 C 
ATOM     10  C15 OHN d          37.031  -4.015   6.108  0.00  0.00     0.181 C 
ATOM     11  O4  OHN d          38.445  -3.974   6.045  0.00  0.00    -0.320 OA
ATOM     12  C16 OHN d          38.928  -2.933   6.888  0.00  0.00     0.281 C 
ATOM     13  O3  OHN d          40.098  -2.699   7.030  0.00  0.00    -0.263 OA
ENDBRANCH   5   8
ENDBRANCH   3   4
ENDBRANCH   1   3
BRANCH   1  14
ATOM     14  C9  OHN d          40.785   1.945   7.550  0.00  0.00     0.079 C 
BRANCH  14  15
ATOM     15  C8  OHN d          41.172   2.731   8.779  0.00  0.00     0.007 C 
BRANCH  15  16
ATOM     16  C7  OHN d          42.691   2.681   8.806  0.00  0.00     0.000 C 
BRANCH  16  17
ATOM     17  C6  OHN d          43.200   1.589   7.860  0.00  0.00     0.000 C 
BRANCH  17  18
ATOM     18  C5  OHN d          44.261   0.776   8.586  0.00  0.00     0.000 C 
BRANCH  18  19
ATOM     19  C4  OHN d          43.685   0.212   9.867  0.00  0.00     0.000 C 
BRANCH  19  20
ATOM     20  C3  OHN d          42.753  -0.941   9.550  0.00  0.00    -0.000 C 
BRANCH  20  21
ATOM     21  C2  OHN d          41.839  -1.189  10.728  0.00  0.00    -0.005 C 
ATOM     22  C1  OHN d          41.573   0.142  11.376  0.00  0.00     0.005 C 
ENDBRANCH  20  21
ENDBRANCH  19  20
ENDBRANCH  18  19
ENDBRANCH  17  18
ENDBRANCH  16  17
ENDBRANCH  15  16
ENDBRANCH  14  15
ENDBRANCH   1  14
TORSDOF 11
ENDMDL
MODEL 12
REMARK VINA RESULT:      -4.6      1.678      2.794
REMARK  11 active torsions:
REMARK  status: ('A' for Active; 'I' for Inactive)
REMARK    1  A    between atoms: C3_3  and  C2_2 
REMARK    2  A    between atoms: C4_4  and  C3_3 
REMARK    3  A    between atoms: C5_5  and  C4_4 
REMARK    4  A    between atoms: C6_6  and  C5_5 
REMARK    5  A    between atoms: C7_7  and  C6_6 
REMARK    6  A    between atoms: C8_8  and  C7_7 
REMARK    7  A    between atoms: C9_9  and  C8_8 
REMARK    8  A    between atoms: C10_10  and  C9_9 
REMARK    9  A    between atoms: C11_12  and  C10_10 
REMARK   10  A    between atoms: C11_12  and  C12_13 
REMARK       I    between atoms: C12_13  and  N1_15 
REMARK   11  A    between atoms: C13_16  and  N1_15 
ROOT
ATOM      1  C10 OHN d          44.813   0.918   9.317  0.00  0.00     0.135 C 
ATOM      2  O1  OHN d          44.055   1.059  10.261  0.00  0.00    -0.297 OA
ENDROOT
BRANCH   1   3
ATOM      3  C11 OHN d          44.335   1.031   7.907  0.00  0.00     0.181 C 
BRANCH   3   4
ATOM      4  C12 OHN d          42.830   0.989   7.857  0.00  0.00     0.225 C 
ATOM      5  N1  OHN d          42.195  -0.073   8.335  0.00  0.00    -0.347 N 
ATOM      6  H19 OHN d          42.692  -0.867   8.711  0.00  0.00     0.163 HD
ATOM      7  O2  OHN d          42.256   1.935   7.372  0.00  0.00    -0.273 OA
BRANCH   5   8
ATOM      8  C13 OHN d          40.762  -0.029   8.287  0.00  0.00     0.186 C 
ATOM      9  C14 OHN d          40.096  -1.323   7.824  0.00  0.00     0.062 C 
ATOM     10  C15 OHN d          38.843  -1.533   8.691  0.00  0.00     0.181 C 
ATOM     11  O4  OHN d          39.050  -0.739   9.845  0.00  0.00    -0.320 OA
ATOM     12  C16 OHN d          40.153   0.137   9.626  0.00  0.00     0.281 C 
ATOM     13  O3  OHN d          40.525   0.933  10.445  0.00  0.00    -0.263 OA
ENDBRANCH   5   8
ENDBRANCH   3   4
ENDBRANCH   1   3
BRANCH   1  14
ATOM     14  C9  OHN d          46.247   0.565   9.545  0.00  0.00     0.079 C 
BRANCH  14  15
ATOM     15  C8  OHN d          47.183   1.664   9.104  0.00  0.00     0.007 C 
BRANCH  15  16
ATOM     16  C7  OHN d          48.191   0.973   8.199  0.00  0.00     0.000 C 
BRANCH  16  17
ATOM     17  C6  OHN d          47.992   1.422   6.748  0.00  0.00     0.000 C 
BRANCH  17  18
ATOM     18  C5  OHN d          47.912   2.941   6.719  0.00  0.00     0.000 C 
BRANCH  18  19
ATOM     19  C4  OHN d          49.288   3.520   6.475  0.00  0.00     0.000 C 
BRANCH  19  20
ATOM     20  C3  OHN d          49.738   4.310   7.689  0.00  0.00    -0.000 C 
BRANCH  20  21
ATOM     21  C2  OHN d          50.855   3.569   8.388  0.00  0.00    -0.005 C 
ATOM     22  C1  OHN d          50.477   3.457   9.839  0.00  0.00     0.005 C 
ENDBRANCH  20  21
ENDBRANCH  19  20
ENDBRANCH  18  19
ENDBRANCH  17  18
ENDBRANCH  16  17
ENDBRANCH  15  16
ENDBRANCH  14  15
ENDBRANCH   1  14
TORSDOF 11
ENDMDL
MODEL 13
REMARK VINA RESULT:      -4.6      2.428      7.035
REMARK  11 active torsions:
REMARK  status: ('A' for Active; 'I' for Inactive)
REMARK    1  A    between atoms: C3_3  and  C2_2 
REMARK    2  A    between atoms: C4_4  and  C3_3 
REMARK    3  A    between atoms: C5_5  and  C4_4 
REMARK    4  A    between atoms: C6_6  and  C5_5 
REMARK    5  A    between atoms: C7_7  and  C6_6 
REMARK    6  A    between atoms: C8_8  and  C7_7 
REMARK    7  A    between atoms: C9_9  and  C8_8 
REMARK    8  A    between atoms: C10_10  and  C9_9 
REMARK    9  A    between atoms: C11_12  and  C10_10 
REMARK   10  A    between atoms: C11_12  and  C12_13 
REMARK       I    between atoms: C12_13  and  N1_15 
REMARK   11  A    between atoms: C13_16  and  N1_15 
ROOT
ATOM      1  C10 OHN d          42.380   2.244   7.872  0.00  0.00     0.135 C 
ATOM      2  O1  OHN d          42.847   3.131   8.565  0.00  0.00    -0.297 OA
ENDROOT
BRANCH   1   3
ATOM      3  C11 OHN d          43.226   1.131   7.349  0.00  0.00     0.181 C 
BRANCH   3   4
ATOM      4  C12 OHN d          44.641   1.268   7.849  0.00  0.00     0.225 C 
ATOM      5  N1  OHN d          45.480   2.072   7.209  0.00  0.00    -0.347 N 
ATOM      6  H19 OHN d          45.205   2.579   6.380  0.00  0.00     0.163 HD
ATOM      7  O2  OHN d          44.960   0.627   8.822  0.00  0.00    -0.273 OA
BRANCH   5   8
ATOM      8  C13 OHN d          46.799   2.181   7.760  0.00  0.00     0.186 C 
ATOM      9  C14 OHN d          47.931   2.097   6.739  0.00  0.00     0.062 C 
ATOM     10  C15 OHN d          48.998   3.128   7.145  0.00  0.00     0.181 C 
ATOM     11  O4  OHN d          48.328   4.044   7.992  0.00  0.00    -0.320 OA
ATOM     12  C16 OHN d          47.059   3.510   8.358  0.00  0.00     0.281 C 
ATOM     13  O3  OHN d          46.297   4.084   9.090  0.00  0.00    -0.263 OA
ENDBRANCH   5   8
ENDBRANCH   3   4
ENDBRANCH   1   3
BRANCH   1  14
ATOM     14  C9  OHN d          40.940   2.277   7.470  0.00  0.00     0.079 C 
BRANCH  14  15
ATOM     15  C8  OHN d          40.043   2.729   8.596  0.00  0.00     0.007 C 
BRANCH  15  16
ATOM     16  C7  OHN d          39.034   1.603   8.761  0.00  0.00     0.000 C 
BRANCH  16  17
ATOM     17  C6  OHN d          38.974   0.758   7.484  0.00  0.00     0.000 C 
BRANCH  17  18
ATOM     18  C5  OHN d          38.816  -0.702   7.879  0.00  0.00     0.000 C 
BRANCH  18  19
ATOM     19  C4  OHN d          40.166  -1.386   7.859  0.00  0.00     0.000 C 
BRANCH  19  20
ATOM     20  C3  OHN d          40.532  -1.848   9.256  0.00  0.00    -0.000 C 
BRANCH  20  21
ATOM     21  C2  OHN d          41.923  -1.365   9.600  0.00  0.00    -0.005 C 
ATOM     22  C1  OHN d          41.774  -0.241  10.587  0.00  0.00     0.005 C 
ENDBRANCH  20  21
ENDBRANCH  19  20
ENDBRANCH  18  19
ENDBRANCH  17  18
ENDBRANCH  16  17
ENDBRANCH  15  16
ENDBRANCH  14  15
ENDBRANCH   1  14
TORSDOF 11
ENDMDL
MODEL 14
REMARK VINA RESULT:      -4.6      1.100      2.373
REMARK  11 active torsions:
REMARK  status: ('A' for Active; 'I' for Inactive)
REMARK    1  A    between atoms: C3_3  and  C2_2 
REMARK    2  A    between atoms: C4_4  and  C3_3 
REMARK    3  A    between atoms: C5_5  and  C4_4 
REMARK    4  A    between atoms: C6_6  and  C5_5 
REMARK    5  A    between atoms: C7_7  and  C6_6 
REMARK    6  A    between atoms: C8_8  and  C7_7 
REMARK    7  A    between atoms: C9_9  and  C8_8 
REMARK    8  A    between atoms: C10_10  and  C9_9 
REMARK    9  A    between atoms: C11_12  and  C10_10 
REMARK   10  A    between atoms: C11_12  and  C12_13 
REMARK       I    between atoms: C12_13  and  N1_15 
REMARK   11  A    between atoms: C13_16  and  N1_15 
ROOT
ATOM      1  C10 OHN d          44.919   1.772   7.754  0.00  0.00     0.135 C 
ATOM      2  O1  OHN d          45.034   0.799   8.478  0.00  0.00    -0.297 OA
ENDROOT
BRANCH   1   3
ATOM      3  C11 OHN d          43.619   2.118   7.107  0.00  0.00     0.181 C 
BRANCH   3   4
ATOM      4  C12 OHN d          42.473   1.511   7.875  0.00  0.00     0.225 C 
ATOM      5  N1  OHN d          42.286   0.199   7.831  0.00  0.00    -0.347 N 
ATOM      6  H19 OHN d          42.876  -0.406   7.278  0.00  0.00     0.163 HD
ATOM      7  O2  OHN d          41.759   2.256   8.503  0.00  0.00    -0.273 OA
BRANCH   5   8
ATOM      8  C13 OHN d          41.199  -0.314   8.613  0.00  0.00     0.186 C 
ATOM      9  C14 OHN d          40.032  -0.872   7.802  0.00  0.00     0.062 C 
ATOM     10  C15 OHN d          39.539  -2.143   8.515  0.00  0.00     0.181 C 
ATOM     11  O4  OHN d          40.616  -2.547   9.341  0.00  0.00    -0.320 OA
ATOM     12  C16 OHN d          41.580  -1.501   9.411  0.00  0.00     0.281 C 
ATOM     13  O3  OHN d          42.585  -1.582  10.065  0.00  0.00    -0.263 OA
ENDBRANCH   5   8
ENDBRANCH   3   4
ENDBRANCH   1   3
BRANCH   1  14
ATOM     14  C9  OHN d          46.106   2.625   7.440  0.00  0.00     0.079 C 
BRANCH  14  15
ATOM     15  C8  OHN d          47.234   1.830   6.827  0.00  0.00     0.007 C 
BRANCH  15  16
ATOM     16  C7  OHN d          48.416   2.787   6.812  0.00  0.00     0.000 C 
BRANCH  16  17
ATOM     17  C6  OHN d          48.638   3.372   8.211  0.00  0.00     0.000 C 
BRANCH  17  18
ATOM     18  C5  OHN d          49.913   2.776   8.787  0.00  0.00     0.000 C 
BRANCH  18  19
ATOM     19  C4  OHN d          49.577   1.560   9.622  0.00  0.00     0.000 C 
BRANCH  19  20
ATOM     20  C3  OHN d          48.383   1.855  10.508  0.00  0.00    -0.000 C 
BRANCH  20  21
ATOM     21  C2  OHN d          47.605   0.582  10.747  0.00  0.00    -0.005 C 
ATOM     22  C1  OHN d          47.997  -0.391   9.670  0.00  0.00     0.005 C 
ENDBRANCH  20  21
ENDBRANCH  19  20
ENDBRANCH  18  19
ENDBRANCH  17  18
ENDBRANCH  16  17
ENDBRANCH  15  16
ENDBRANCH  14  15
ENDBRANCH   1  14
TORSDOF 11
ENDMDL
MODEL 15
REMARK VINA RESULT:      -4.6      3.664      8.908
REMARK  11 active torsions:
REMARK  status: ('A' for Active; 'I' for Inactive)
REMARK    1  A    between atoms: C3_3  and  C2_2 
REMARK    2  A    between atoms: C4_4  and  C3_3 
REMARK    3  A    between atoms: C5_5  and  C4_4 
REMARK    4  A    between atoms: C6_6  and  C5_5 
REMARK    5  A    between atoms: C7_7  and  C6_6 
REMARK    6  A    between atoms: C8_8  and  C7_7 
REMARK    7  A    between atoms: C9_9  and  C8_8 
REMARK    8  A    between atoms: C10_10  and  C9_9 
REMARK    9  A    between atoms: C11_12  and  C10_10 
REMARK   10  A    between atoms: C11_12  and  C12_13 
REMARK       I    between atoms: C12_13  and  N1_15 
REMARK   11  A    between atoms: C13_16  and  N1_15 
ROOT
ATOM      1  C10 OHN d          39.498  -2.277   7.595  0.00  0.00     0.135 C 
ATOM      2  O1  OHN d          40.030  -2.771   8.574  0.00  0.00    -0.297 OA
ENDROOT
BRANCH   1   3
ATOM      3  C11 OHN d          39.275  -0.805   7.484  0.00  0.00     0.181 C 
BRANCH   3   4
ATOM      4  C12 OHN d          40.321  -0.054   8.266  0.00  0.00     0.225 C 
ATOM      5  N1  OHN d          41.604  -0.316   8.050  0.00  0.00    -0.347 N 
ATOM      6  H19 OHN d          41.900  -1.023   7.392  0.00  0.00     0.163 HD
ATOM      7  O2  OHN d          39.945   0.763   9.072  0.00  0.00    -0.273 OA
BRANCH   5   8
ATOM      8  C13 OHN d          42.545   0.460   8.803  0.00  0.00     0.186 C 
ATOM      9  C14 OHN d          43.431  -0.346   9.750  0.00  0.00     0.062 C 
ATOM     10  C15 OHN d          44.847   0.252   9.680  0.00  0.00     0.181 C 
ATOM     11  O4  OHN d          44.886   0.975   8.464  0.00  0.00    -0.320 OA
ATOM     12  C16 OHN d          43.565   1.107   7.947  0.00  0.00     0.281 C 
ATOM     13  O3  OHN d          43.319   1.698   6.930  0.00  0.00    -0.263 OA
ENDBRANCH   5   8
ENDBRANCH   3   4
ENDBRANCH   1   3
BRANCH   1  14
ATOM     14  C9  OHN d          38.993  -3.146   6.488  0.00  0.00     0.079 C 
BRANCH  14  15
ATOM     15  C8  OHN d          37.976  -4.152   6.971  0.00  0.00     0.007 C 
BRANCH  15  16
ATOM     16  C7  OHN d          36.771  -3.945   6.068  0.00  0.00     0.000 C 
BRANCH  16  17
ATOM     17  C6  OHN d          36.341  -5.280   5.449  0.00  0.00     0.000 C 
BRANCH  17  18
ATOM     18  C5  OHN d          37.323  -5.637   4.344  0.00  0.00     0.000 C 
BRANCH  18  19
ATOM     19  C4  OHN d          37.496  -7.139   4.280  0.00  0.00     0.000 C 
BRANCH  19  20
ATOM     20  C3  OHN d          38.196  -7.633   5.531  0.00  0.00    -0.000 C 
BRANCH  20  21
ATOM     21  C2  OHN d          39.193  -8.707   5.161  0.00  0.00    -0.005 C 
ATOM     22  C1  OHN d          39.269  -8.749   3.660  0.00  0.00     0.005 C 
ENDBRANCH  20  21
ENDBRANCH  19  20
ENDBRANCH  18  19
ENDBRANCH  17  18
ENDBRANCH  16  17
ENDBRANCH  15  16
ENDBRANCH  14  15
ENDBRANCH   1  14
TORSDOF 11
ENDMDL
MODEL 16
REMARK VINA RESULT:      -4.5      2.389      4.569
REMARK  11 active torsions:
REMARK  status: ('A' for Active; 'I' for Inactive)
REMARK    1  A    between atoms: C3_3  and  C2_2 
REMARK    2  A    between atoms: C4_4  and  C3_3 
REMARK    3  A    between atoms: C5_5  and  C4_4 
REMARK    4  A    between atoms: C6_6  and  C5_5 
REMARK    5  A    between atoms: C7_7  and  C6_6 
REMARK    6  A    between atoms: C8_8  and  C7_7 
REMARK    7  A    between atoms: C9_9  and  C8_8 
REMARK    8  A    between atoms: C10_10  and  C9_9 
REMARK    9  A    between atoms: C11_12  and  C10_10 
REMARK   10  A    between atoms: C11_12  and  C12_13 
REMARK       I    between atoms: C12_13  and  N1_15 
REMARK   11  A    between atoms: C13_16  and  N1_15 
ROOT
ATOM      1  C10 OHN d          42.628   0.035  10.606  0.00  0.00     0.135 C 
ATOM      2  O1  OHN d          41.574   0.293  11.161  0.00  0.00    -0.297 OA
ENDROOT
BRANCH   1   3
ATOM      3  C11 OHN d          42.766  -1.143   9.699  0.00  0.00     0.181 C 
BRANCH   3   4
ATOM      4  C12 OHN d          41.452  -1.868   9.574  0.00  0.00     0.225 C 
ATOM      5  N1  OHN d          40.438  -1.272   8.960  0.00  0.00    -0.347 N 
ATOM      6  H19 OHN d          40.514  -0.334   8.592  0.00  0.00     0.163 HD
ATOM      7  O2  OHN d          41.371  -2.975  10.050  0.00  0.00    -0.273 OA
BRANCH   5   8
ATOM      8  C13 OHN d          39.228  -2.034   8.846  0.00  0.00     0.186 C 
ATOM      9  C14 OHN d          37.954  -1.271   9.198  0.00  0.00     0.062 C 
ATOM     10  C15 OHN d          36.871  -1.691   8.189  0.00  0.00     0.181 C 
ATOM     11  O4  OHN d          37.577  -2.232   7.088  0.00  0.00    -0.320 OA
ATOM     12  C16 OHN d          38.939  -2.439   7.452  0.00  0.00     0.281 C 
ATOM     13  O3  OHN d          39.750  -2.909   6.701  0.00  0.00    -0.263 OA
ENDBRANCH   5   8
ENDBRANCH   3   4
ENDBRANCH   1   3
BRANCH   1  14
ATOM     14  C9  OHN d          43.844   0.865  10.866  0.00  0.00     0.079 C 
BRANCH  14  15
ATOM     15  C8  OHN d          44.950   0.582   9.879  0.00  0.00     0.007 C 
BRANCH  15  16
ATOM     16  C7  OHN d          45.058   1.850   9.047  0.00  0.00     0.000 C 
BRANCH  16  17
ATOM     17  C6  OHN d          45.068   1.502   7.555  0.00  0.00     0.000 C 
BRANCH  17  18
ATOM     18  C5  OHN d          43.631   1.317   7.092  0.00  0.00     0.000 C 
BRANCH  18  19
ATOM     19  C4  OHN d          42.762   2.409   7.676  0.00  0.00     0.000 C 
BRANCH  19  20
ATOM     20  C3  OHN d          41.306   1.986   7.638  0.00  0.00    -0.000 C 
BRANCH  20  21
ATOM     21  C2  OHN d          40.556   2.652   8.769  0.00  0.00    -0.005 C 
ATOM     22  C1  OHN d          41.536   3.530   9.498  0.00  0.00     0.005 C 
ENDBRANCH  20  21
ENDBRANCH  19  20
ENDBRANCH  18  19
ENDBRANCH  17  18
ENDBRANCH  16  17
ENDBRANCH  15  16
ENDBRANCH  14  15
ENDBRANCH   1  14
TORSDOF 11
ENDMDL
MODEL 17
REMARK VINA RESULT:      -4.5      1.589      2.327
REMARK  11 active torsions:
REMARK  status: ('A' for Active; 'I' for Inactive)
REMARK    1  A    between atoms: C3_3  and  C2_2 
REMARK    2  A    between atoms: C4_4  and  C3_3 
REMARK    3  A    between atoms: C5_5  and  C4_4 
REMARK    4  A    between atoms: C6_6  and  C5_5 
REMARK    5  A    between atoms: C7_7  and  C6_6 
REMARK    6  A    between atoms: C8_8  and  C7_7 
REMARK    7  A    between atoms: C9_9  and  C8_8 
REMARK    8  A    between atoms: C10_10  and  C9_9 
REMARK    9  A    between atoms: C11_12  and  C10_10 
REMARK   10  A    between atoms: C11_12  and  C12_13 
REMARK       I    between atoms: C12_13  and  N1_15 
REMARK   11  A    between atoms: C13_16  and  N1_15 
ROOT
ATOM      1  C10 OHN d          44.194   0.906   9.401  0.00  0.00     0.135 C 
ATOM      2  O1  OHN d          43.471   1.282  10.307  0.00  0.00    -0.297 OA
ENDROOT
BRANCH   1   3
ATOM      3  C11 OHN d          43.777   1.013   7.971  0.00  0.00     0.181 C 
BRANCH   3   4
ATOM      4  C12 OHN d          42.275   0.988   7.859  0.00  0.00     0.225 C 
ATOM      5  N1  OHN d          41.618  -0.113   8.201  0.00  0.00    -0.347 N 
ATOM      6  H19 OHN d          42.097  -0.945   8.513  0.00  0.00     0.163 HD
ATOM      7  O2  OHN d          41.723   1.982   7.451  0.00  0.00    -0.273 OA
BRANCH   5   8
ATOM      8  C13 OHN d          40.188  -0.054   8.102  0.00  0.00     0.186 C 
ATOM      9  C14 OHN d          39.537  -1.281   7.469  0.00  0.00     0.062 C 
ATOM     10  C15 OHN d          38.250  -1.580   8.257  0.00  0.00     0.181 C 
ATOM     11  O4  OHN d          38.414  -0.924   9.501  0.00  0.00    -0.320 OA
ATOM     12  C16 OHN d          39.526  -0.036   9.426  0.00  0.00     0.281 C 
ATOM     13  O3  OHN d          39.868   0.658  10.345  0.00  0.00    -0.263 OA
ENDBRANCH   5   8
ENDBRANCH   3   4
ENDBRANCH   1   3
BRANCH   1  14
ATOM     14  C9  OHN d          45.510   0.263   9.700  0.00  0.00     0.079 C 
BRANCH  14  15
ATOM     15  C8  OHN d          46.263   0.985  10.791  0.00  0.00     0.007 C 
BRANCH  15  16
ATOM     16  C7  OHN d          47.709   0.546  10.618  0.00  0.00     0.000 C 
BRANCH  16  17
ATOM     17  C6  OHN d          48.001   0.266   9.139  0.00  0.00     0.000 C 
BRANCH  17  18
ATOM     18  C5  OHN d          48.609   1.516   8.523  0.00  0.00     0.000 C 
BRANCH  18  19
ATOM     19  C4  OHN d          48.001   1.761   7.159  0.00  0.00     0.000 C 
BRANCH  19  20
ATOM     20  C3  OHN d          46.882   2.779   7.268  0.00  0.00    -0.000 C 
BRANCH  20  21
ATOM     21  C2  OHN d          47.188   3.750   8.385  0.00  0.00    -0.005 C 
ATOM     22  C1  OHN d          45.872   4.209   8.951  0.00  0.00     0.005 C 
ENDBRANCH  20  21
ENDBRANCH  19  20
ENDBRANCH  18  19
ENDBRANCH  17  18
ENDBRANCH  16  17
ENDBRANCH  15  16
ENDBRANCH  14  15
ENDBRANCH   1  14
TORSDOF 11
ENDMDL
MODEL 18
REMARK VINA RESULT:      -4.5      1.587      2.654
REMARK  11 active torsions:
REMARK  status: ('A' for Active; 'I' for Inactive)
REMARK    1  A    between atoms: C3_3  and  C2_2 
REMARK    2  A    between atoms: C4_4  and  C3_3 
REMARK    3  A    between atoms: C5_5  and  C4_4 
REMARK    4  A    between atoms: C6_6  and  C5_5 
REMARK    5  A    between atoms: C7_7  and  C6_6 
REMARK    6  A    between atoms: C8_8  and  C7_7 
REMARK    7  A    between atoms: C9_9  and  C8_8 
REMARK    8  A    between atoms: C10_10  and  C9_9 
REMARK    9  A    between atoms: C11_12  and  C10_10 
REMARK   10  A    between atoms: C11_12  and  C12_13 
REMARK       I    between atoms: C12_13  and  N1_15 
REMARK   11  A    between atoms: C13_16  and  N1_15 
ROOT
ATOM      1  C10 OHN d          43.145   1.347   8.555  0.00  0.00     0.135 C 
ATOM      2  O1  OHN d          43.389   0.887   9.657  0.00  0.00    -0.297 OA
ENDROOT
BRANCH   1   3
ATOM      3  C11 OHN d          41.927   2.172   8.304  0.00  0.00     0.181 C 
BRANCH   3   4
ATOM      4  C12 OHN d          40.775   1.296   7.889  0.00  0.00     0.225 C 
ATOM      5  N1  OHN d          40.707   0.053   8.348  0.00  0.00    -0.347 N 
ATOM      6  H19 OHN d          41.419  -0.332   8.951  0.00  0.00     0.163 HD
ATOM      7  O2  OHN d          39.951   1.765   7.140  0.00  0.00    -0.273 OA
BRANCH   5   8
ATOM      8  C13 OHN d          39.564  -0.713   7.941  0.00  0.00     0.186 C 
ATOM      9  C14 OHN d          39.880  -2.121   7.442  0.00  0.00     0.062 C 
ATOM     10  C15 OHN d          38.788  -3.059   7.984  0.00  0.00     0.181 C 
ATOM     11  O4  OHN d          38.213  -2.367   9.078  0.00  0.00    -0.320 OA
ATOM     12  C16 OHN d          38.648  -1.011   9.065  0.00  0.00     0.281 C 
ATOM     13  O3  OHN d          38.288  -0.203   9.878  0.00  0.00    -0.263 OA
ENDBRANCH   5   8
ENDBRANCH   3   4
ENDBRANCH   1   3
BRANCH   1  14
ATOM     14  C9  OHN d          44.038   1.044   7.395  0.00  0.00     0.079 C 
BRANCH  14  15
ATOM     15  C8  OHN d          44.603   2.295   6.768  0.00  0.00     0.007 C 
BRANCH  15  16
ATOM     16  C7  OHN d          45.847   2.609   7.585  0.00  0.00     0.000 C 
BRANCH  16  17
ATOM     17  C6  OHN d          47.066   2.726   6.665  0.00  0.00     0.000 C 
BRANCH  17  18
ATOM     18  C5  OHN d          48.104   1.705   7.106  0.00  0.00     0.000 C 
BRANCH  18  19
ATOM     19  C4  OHN d          48.266   1.758   8.609  0.00  0.00     0.000 C 
BRANCH  19  20
ATOM     20  C3  OHN d          48.372   0.352   9.168  0.00  0.00    -0.000 C 
BRANCH  20  21
ATOM     21  C2  OHN d          47.061  -0.035   9.812  0.00  0.00    -0.005 C 
ATOM     22  C1  OHN d          46.756   0.998  10.861  0.00  0.00     0.005 C 
ENDBRANCH  20  21
ENDBRANCH  19  20
ENDBRANCH  18  19
ENDBRANCH  17  18
ENDBRANCH  16  17
ENDBRANCH  15  16
ENDBRANCH  14  15
ENDBRANCH   1  14
TORSDOF 11
ENDMDL
MODEL 19
REMARK VINA RESULT:      -4.5      1.614      2.828
REMARK  11 active torsions:
REMARK  status: ('A' for Active; 'I' for Inactive)
REMARK    1  A    between atoms: C3_3  and  C2_2 
REMARK    2  A    between atoms: C4_4  and  C3_3 
REMARK    3  A    between atoms: C5_5  and  C4_4 
REMARK    4  A    between atoms: C6_6  and  C5_5 
REMARK    5  A    between atoms: C7_7  and  C6_6 
REMARK    6  A    between atoms: C8_8  and  C7_7 
REMARK    7  A    between atoms: C9_9  and  C8_8 
REMARK    8  A    between atoms: C10_10  and  C9_9 
REMARK    9  A    between atoms: C11_12  and  C10_10 
REMARK   10  A    between atoms: C11_12  and  C12_13 
REMARK       I    between atoms: C12_13  and  N1_15 
REMARK   11  A    between atoms: C13_16  and  N1_15 
ROOT
ATOM      1  C10 OHN d          42.616  -0.322   9.196  0.00  0.00     0.135 C 
ATOM      2  O1  OHN d          42.231  -1.308   9.801  0.00  0.00    -0.297 OA
ENDROOT
BRANCH   1   3
ATOM      3  C11 OHN d          41.736   0.392   8.224  0.00  0.00     0.181 C 
BRANCH   3   4
ATOM      4  C12 OHN d          40.393  -0.285   8.135  0.00  0.00     0.225 C 
ATOM      5  N1  OHN d          40.326  -1.537   7.701  0.00  0.00    -0.347 N 
ATOM      6  H19 OHN d          41.148  -2.044   7.406  0.00  0.00     0.163 HD
ATOM      7  O2  OHN d          39.419   0.350   8.462  0.00  0.00    -0.273 OA
BRANCH   5   8
ATOM      8  C13 OHN d          39.020  -2.130   7.676  0.00  0.00     0.186 C 
ATOM      9  C14 OHN d          38.729  -2.990   6.449  0.00  0.00     0.062 C 
ATOM     10  C15 OHN d          37.945  -4.225   6.925  0.00  0.00     0.181 C 
ATOM     11  O4  OHN d          38.203  -4.318   8.314  0.00  0.00    -0.320 OA
ATOM     12  C16 OHN d          38.821  -3.115   8.763  0.00  0.00     0.281 C 
ATOM     13  O3  OHN d          39.126  -2.928   9.910  0.00  0.00    -0.263 OA
ENDBRANCH   5   8
ENDBRANCH   3   4
ENDBRANCH   1   3
BRANCH   1  14
ATOM     14  C9  OHN d          44.017   0.171   9.366  0.00  0.00     0.079 C 
BRANCH  14  15
ATOM     15  C8  OHN d          44.465   1.029   8.208  0.00  0.00     0.007 C 
BRANCH  15  16
ATOM     16  C7  OHN d          44.833   2.364   8.837  0.00  0.00     0.000 C 
BRANCH  16  17
ATOM     17  C6  OHN d          46.004   2.998   8.079  0.00  0.00     0.000 C 
BRANCH  17  18
ATOM     18  C5  OHN d          46.589   1.957   7.136  0.00  0.00     0.000 C 
BRANCH  18  19
ATOM     19  C4  OHN d          48.099   1.982   7.221  0.00  0.00     0.000 C 
BRANCH  19  20
ATOM     20  C3  OHN d          48.541   1.714   8.647  0.00  0.00    -0.000 C 
BRANCH  20  21
ATOM     21  C2  OHN d          48.303   0.261   8.985  0.00  0.00    -0.005 C 
ATOM     22  C1  OHN d          47.621   0.220  10.325  0.00  0.00     0.005 C 
ENDBRANCH  20  21
ENDBRANCH  19  20
ENDBRANCH  18  19
ENDBRANCH  17  18
ENDBRANCH  16  17
ENDBRANCH  15  16
ENDBRANCH  14  15
ENDBRANCH   1  14
TORSDOF 11
ENDMDL
MODEL 20
REMARK VINA RESULT:      -4.5      1.634      2.650
REMARK  11 active torsions:
REMARK  status: ('A' for Active; 'I' for Inactive)
REMARK    1  A    between atoms: C3_3  and  C2_2 
REMARK    2  A    between atoms: C4_4  and  C3_3 
REMARK    3  A    between atoms: C5_5  and  C4_4 
REMARK    4  A    between atoms: C6_6  and  C5_5 
REMARK    5  A    between atoms: C7_7  and  C6_6 
REMARK    6  A    between atoms: C8_8  and  C7_7 
REMARK    7  A    between atoms: C9_9  and  C8_8 
REMARK    8  A    between atoms: C10_10  and  C9_9 
REMARK    9  A    between atoms: C11_12  and  C10_10 
REMARK   10  A    between atoms: C11_12  and  C12_13 
REMARK       I    between atoms: C12_13  and  N1_15 
REMARK   11  A    between atoms: C13_16  and  N1_15 
ROOT
ATOM      1  C10 OHN d          44.391   1.172   7.887  0.00  0.00     0.135 C 
ATOM      2  O1  OHN d          43.482   1.236   7.077  0.00  0.00    -0.297 OA
ENDROOT
BRANCH   1   3
ATOM      3  C11 OHN d          44.234   0.446   9.182  0.00  0.00     0.181 C 
BRANCH   3   4
ATOM      4  C12 OHN d          42.783   0.131   9.436  0.00  0.00     0.225 C 
ATOM      5  N1  OHN d          42.184  -0.798   8.703  0.00  0.00    -0.347 N 
ATOM      6  H19 OHN d          42.666  -1.285   7.962  0.00  0.00     0.163 HD
ATOM      7  O2  OHN d          42.216   0.749  10.306  0.00  0.00    -0.273 OA
BRANCH   5   8
ATOM      8  C13 OHN d          40.812  -1.071   9.023  0.00  0.00     0.186 C 
ATOM      9  C14 OHN d          39.829  -0.851   7.876  0.00  0.00     0.062 C 
ATOM     10  C15 OHN d          38.796  -1.989   7.928  0.00  0.00     0.181 C 
ATOM     11  O4  OHN d          39.409  -3.015   8.687  0.00  0.00    -0.320 OA
ATOM     12  C16 OHN d          40.573  -2.500   9.329  0.00  0.00     0.281 C 
ATOM     13  O3  OHN d          41.266  -3.163  10.051  0.00  0.00    -0.263 OA
ENDBRANCH   5   8
ENDBRANCH   3   4
ENDBRANCH   1   3
BRANCH   1  14
ATOM     14  C9  OHN d          45.684   1.877   7.631  0.00  0.00     0.079 C 
BRANCH  14  15
ATOM     15  C8  OHN d          46.789   1.391   8.538  0.00  0.00     0.007 C 
BRANCH  15  16
ATOM     16  C7  OHN d          48.040   1.430   7.675  0.00  0.00     0.000 C 
BRANCH  16  17
ATOM     17  C6  OHN d          47.872   2.456   6.549  0.00  0.00     0.000 C 
BRANCH  17  18
ATOM     18  C5  OHN d          49.119   3.325   6.498  0.00  0.00     0.000 C 
BRANCH  18  19
ATOM     19  C4  OHN d          49.713   3.449   7.884  0.00  0.00     0.000 C 
BRANCH  19  20
ATOM     20  C3  OHN d          49.330   4.783   8.494  0.00  0.00    -0.000 C 
BRANCH  20  21
ATOM     21  C2  OHN d          48.458   4.551   9.707  0.00  0.00    -0.005 C 
ATOM     22  C1  OHN d          47.095   5.100   9.389  0.00  0.00     0.005 C 
ENDBRANCH  20  21
ENDBRANCH  19  20
ENDBRANCH  18  19
ENDBRANCH  17  18
ENDBRANCH  16  17
ENDBRANCH  15  16
ENDBRANCH  14  15
ENDBRANCH   1  14
TORSDOF 11
ENDMDL
