MODEL 1
REMARK VINA RESULT:      -8.2      0.000      0.000
REMARK  11 active torsions:
REMARK  status: ('A' for Active; 'I' for Inactive)
REMARK    1  A    between atoms: C3_3  and  C2_2 
REMARK    2  A    between atoms: C4_4  and  C3_3 
REMARK    3  A    between atoms: C5_5  and  C4_4 
REMARK    4  A    between atoms: C6_6  and  C5_5 
REMARK    5  A    between atoms: C7_7  and  C6_6 
REMARK    6  A    between atoms: C8_8  and  C7_7 
REMARK    7  A    between atoms: C9_9  and  C8_8 
REMARK    8  A    between atoms: C10_10  and  C9_9 
REMARK    9  A    between atoms: C11_12  and  C10_10 
REMARK   10  A    between atoms: C11_12  and  C12_13 
REMARK       I    between atoms: C12_13  and  N1_15 
REMARK   11  A    between atoms: C13_16  and  N1_15 
ROOT
ATOM      1  C10 OHN d          39.474  17.480  -1.028  0.00  0.00     0.135 C 
ATOM      2  O1  OHN d          39.813  18.217  -1.937  0.00  0.00    -0.297 OA
ENDROOT
BRANCH   1   3
ATOM      3  C11 OHN d          38.669  17.980   0.126  0.00  0.00     0.181 C 
BRANCH   3   4
ATOM      4  C12 OHN d          38.416  19.458  -0.012  0.00  0.00     0.225 C 
ATOM      5  N1  OHN d          39.436  20.302   0.078  0.00  0.00    -0.347 N 
ATOM      6  H19 OHN d          40.376  19.984   0.261  0.00  0.00     0.163 HD
ATOM      7  O2  OHN d          37.278  19.820  -0.197  0.00  0.00    -0.273 OA
BRANCH   5   8
ATOM      8  C13 OHN d          39.126  21.692  -0.098  0.00  0.00     0.186 C 
ATOM      9  C14 OHN d          39.422  22.574   1.112  0.00  0.00     0.062 C 
ATOM     10  C15 OHN d          40.012  23.894   0.588  0.00  0.00     0.181 C 
ATOM     11  O4  OHN d          40.476  23.603  -0.718  0.00  0.00    -0.320 OA
ATOM     12  C16 OHN d          39.970  22.336  -1.130  0.00  0.00     0.281 C 
ATOM     13  O3  OHN d          40.200  21.863  -2.210  0.00  0.00    -0.263 OA
ENDBRANCH   5   8
ENDBRANCH   3   4
ENDBRANCH   1   3
BRANCH   1  14
ATOM     14  C9  OHN d          39.911  16.050  -1.010  0.00  0.00     0.079 C 
BRANCH  14  15
ATOM     15  C8  OHN d          40.256  15.541  -2.388  0.00  0.00     0.007 C 
BRANCH  15  16
ATOM     16  C7  OHN d          41.678  15.020  -2.262  0.00  0.00     0.000 C 
BRANCH  16  17
ATOM     17  C6  OHN d          41.784  14.057  -1.074  0.00  0.00     0.000 C 
BRANCH  17  18
ATOM     18  C5  OHN d          41.511  12.646  -1.570  0.00  0.00     0.000 C 
BRANCH  18  19
ATOM     19  C4  OHN d          40.980  11.799  -0.434  0.00  0.00     0.000 C 
BRANCH  19  20
ATOM     20  C3  OHN d          40.616  12.682   0.743  0.00  0.00    -0.000 C 
BRANCH  20  21
ATOM     21  C2  OHN d          40.597  11.855   2.008  0.00  0.00    -0.005 C 
ATOM     22  C1  OHN d          41.036  10.465   1.640  0.00  0.00     0.005 C 
ENDBRANCH  20  21
ENDBRANCH  19  20
ENDBRANCH  18  19
ENDBRANCH  17  18
ENDBRANCH  16  17
ENDBRANCH  15  16
ENDBRANCH  14  15
ENDBRANCH   1  14
TORSDOF 11
ENDMDL
MODEL 2
REMARK VINA RESULT:      -7.8      3.497      8.843
REMARK  11 active torsions:
REMARK  status: ('A' for Active; 'I' for Inactive)
REMARK    1  A    between atoms: C3_3  and  C2_2 
REMARK    2  A    between atoms: C4_4  and  C3_3 
REMARK    3  A    between atoms: C5_5  and  C4_4 
REMARK    4  A    between atoms: C6_6  and  C5_5 
REMARK    5  A    between atoms: C7_7  and  C6_6 
REMARK    6  A    between atoms: C8_8  and  C7_7 
REMARK    7  A    between atoms: C9_9  and  C8_8 
REMARK    8  A    between atoms: C10_10  and  C9_9 
REMARK    9  A    between atoms: C11_12  and  C10_10 
REMARK   10  A    between atoms: C11_12  and  C12_13 
REMARK       I    between atoms: C12_13  and  N1_15 
REMARK   11  A    between atoms: C13_16  and  N1_15 
ROOT
ATOM      1  C10 OHN d          39.323  15.414  -1.290  0.00  0.00     0.135 C 
ATOM      2  O1  OHN d          38.156  15.072  -1.205  0.00  0.00    -0.297 OA
ENDROOT
BRANCH   1   3
ATOM      3  C11 OHN d          40.379  14.478  -1.778  0.00  0.00     0.181 C 
BRANCH   3   4
ATOM      4  C12 OHN d          41.002  13.740  -0.622  0.00  0.00     0.225 C 
ATOM      5  N1  OHN d          40.218  13.112   0.245  0.00  0.00    -0.347 N 
ATOM      6  H19 OHN d          39.212  13.134   0.167  0.00  0.00     0.163 HD
ATOM      7  O2  OHN d          42.207  13.754  -0.527  0.00  0.00    -0.273 OA
BRANCH   5   8
ATOM      8  C13 OHN d          40.881  12.401   1.300  0.00  0.00     0.186 C 
ATOM      9  C14 OHN d          40.179  12.461   2.655  0.00  0.00     0.062 C 
ATOM     10  C15 OHN d          40.295  11.069   3.297  0.00  0.00     0.181 C 
ATOM     11  O4  OHN d          40.574  10.186   2.226  0.00  0.00    -0.320 OA
ATOM     12  C16 OHN d          40.917  10.940   1.067  0.00  0.00     0.281 C 
ATOM     13  O3  OHN d          41.219  10.429   0.022  0.00  0.00    -0.263 OA
ENDBRANCH   5   8
ENDBRANCH   3   4
ENDBRANCH   1   3
BRANCH   1  14
ATOM     14  C9  OHN d          39.746  16.777  -0.846  0.00  0.00     0.079 C 
BRANCH  14  15
ATOM     15  C8  OHN d          39.833  17.750  -1.996  0.00  0.00     0.007 C 
BRANCH  15  16
ATOM     16  C7  OHN d          39.410  19.086  -1.404  0.00  0.00     0.000 C 
BRANCH  16  17
ATOM     17  C6  OHN d          38.271  18.879  -0.400  0.00  0.00     0.000 C 
BRANCH  17  18
ATOM     18  C5  OHN d          38.313  20.010   0.617  0.00  0.00     0.000 C 
BRANCH  18  19
ATOM     19  C4  OHN d          39.015  21.209   0.019  0.00  0.00     0.000 C 
BRANCH  19  20
ATOM     20  C3  OHN d          39.457  22.152   1.121  0.00  0.00    -0.000 C 
BRANCH  20  21
ATOM     21  C2  OHN d          39.896  23.465   0.516  0.00  0.00    -0.005 C 
ATOM     22  C1  OHN d          40.378  23.176  -0.879  0.00  0.00     0.005 C 
ENDBRANCH  20  21
ENDBRANCH  19  20
ENDBRANCH  18  19
ENDBRANCH  17  18
ENDBRANCH  16  17
ENDBRANCH  15  16
ENDBRANCH  14  15
ENDBRANCH   1  14
TORSDOF 11
ENDMDL
MODEL 3
REMARK VINA RESULT:      -7.7      0.857      1.326
REMARK  11 active torsions:
REMARK  status: ('A' for Active; 'I' for Inactive)
REMARK    1  A    between atoms: C3_3  and  C2_2 
REMARK    2  A    between atoms: C4_4  and  C3_3 
REMARK    3  A    between atoms: C5_5  and  C4_4 
REMARK    4  A    between atoms: C6_6  and  C5_5 
REMARK    5  A    between atoms: C7_7  and  C6_6 
REMARK    6  A    between atoms: C8_8  and  C7_7 
REMARK    7  A    between atoms: C9_9  and  C8_8 
REMARK    8  A    between atoms: C10_10  and  C9_9 
REMARK    9  A    between atoms: C11_12  and  C10_10 
REMARK   10  A    between atoms: C11_12  and  C12_13 
REMARK       I    between atoms: C12_13  and  N1_15 
REMARK   11  A    between atoms: C13_16  and  N1_15 
ROOT
ATOM      1  C10 OHN d          39.912  16.996  -2.125  0.00  0.00     0.135 C 
ATOM      2  O1  OHN d          40.170  17.903  -2.897  0.00  0.00    -0.297 OA
ENDROOT
BRANCH   1   3
ATOM      3  C11 OHN d          39.399  17.262  -0.748  0.00  0.00     0.181 C 
BRANCH   3   4
ATOM      4  C12 OHN d          38.902  18.680  -0.638  0.00  0.00     0.225 C 
ATOM      5  N1  OHN d          39.780  19.672  -0.574  0.00  0.00    -0.347 N 
ATOM      6  H19 OHN d          40.776  19.503  -0.573  0.00  0.00     0.163 HD
ATOM      7  O2  OHN d          37.707  18.857  -0.607  0.00  0.00    -0.273 OA
BRANCH   5   8
ATOM      8  C13 OHN d          39.236  20.997  -0.506  0.00  0.00     0.186 C 
ATOM      9  C14 OHN d          39.218  21.613   0.892  0.00  0.00     0.062 C 
ATOM     10  C15 OHN d          39.604  23.095   0.749  0.00  0.00     0.181 C 
ATOM     11  O4  OHN d          40.262  23.189  -0.502  0.00  0.00    -0.320 OA
ATOM     12  C16 OHN d          40.056  21.988  -1.239  0.00  0.00     0.281 C 
ATOM     13  O3  OHN d          40.494  21.818  -2.345  0.00  0.00    -0.263 OA
ENDBRANCH   5   8
ENDBRANCH   3   4
ENDBRANCH   1   3
BRANCH   1  14
ATOM     14  C9  OHN d          40.162  15.575  -2.516  0.00  0.00     0.079 C 
BRANCH  14  15
ATOM     15  C8  OHN d          41.591  15.157  -2.266  0.00  0.00     0.007 C 
BRANCH  15  16
ATOM     16  C7  OHN d          41.490  14.022  -1.259  0.00  0.00     0.000 C 
BRANCH  16  17
ATOM     17  C6  OHN d          40.334  13.088  -1.632  0.00  0.00     0.000 C 
BRANCH  17  18
ATOM     18  C5  OHN d          39.664  12.614  -0.351  0.00  0.00     0.000 C 
BRANCH  18  19
ATOM     19  C4  OHN d          40.716  12.297   0.689  0.00  0.00     0.000 C 
BRANCH  19  20
ATOM     20  C3  OHN d          40.879  10.795   0.817  0.00  0.00    -0.000 C 
BRANCH  20  21
ATOM     21  C2  OHN d          40.650  10.382   2.253  0.00  0.00    -0.005 C 
ATOM     22  C1  OHN d          40.613  11.639   3.078  0.00  0.00     0.005 C 
ENDBRANCH  20  21
ENDBRANCH  19  20
ENDBRANCH  18  19
ENDBRANCH  17  18
ENDBRANCH  16  17
ENDBRANCH  15  16
ENDBRANCH  14  15
ENDBRANCH   1  14
TORSDOF 11
ENDMDL
MODEL 4
REMARK VINA RESULT:      -7.7      0.868      1.739
REMARK  11 active torsions:
REMARK  status: ('A' for Active; 'I' for Inactive)
REMARK    1  A    between atoms: C3_3  and  C2_2 
REMARK    2  A    between atoms: C4_4  and  C3_3 
REMARK    3  A    between atoms: C5_5  and  C4_4 
REMARK    4  A    between atoms: C6_6  and  C5_5 
REMARK    5  A    between atoms: C7_7  and  C6_6 
REMARK    6  A    between atoms: C8_8  and  C7_7 
REMARK    7  A    between atoms: C9_9  and  C8_8 
REMARK    8  A    between atoms: C10_10  and  C9_9 
REMARK    9  A    between atoms: C11_12  and  C10_10 
REMARK   10  A    between atoms: C11_12  and  C12_13 
REMARK       I    between atoms: C12_13  and  N1_15 
REMARK   11  A    between atoms: C13_16  and  N1_15 
ROOT
ATOM      1  C10 OHN d          39.530  17.613  -1.229  0.00  0.00     0.135 C 
ATOM      2  O1  OHN d          39.876  18.413  -2.081  0.00  0.00    -0.297 OA
ENDROOT
BRANCH   1   3
ATOM      3  C11 OHN d          38.669  18.019  -0.078  0.00  0.00     0.181 C 
BRANCH   3   4
ATOM      4  C12 OHN d          38.411  19.502  -0.113  0.00  0.00     0.225 C 
ATOM      5  N1  OHN d          39.438  20.341  -0.064  0.00  0.00    -0.347 N 
ATOM      6  H19 OHN d          40.389  20.014   0.019  0.00  0.00     0.163 HD
ATOM      7  O2  OHN d          37.263  19.873  -0.179  0.00  0.00    -0.273 OA
BRANCH   5   8
ATOM      8  C13 OHN d          39.120  21.738  -0.137  0.00  0.00     0.186 C 
ATOM      9  C14 OHN d          39.438  22.535   1.125  0.00  0.00     0.062 C 
ATOM     10  C15 OHN d          40.013  23.892   0.683  0.00  0.00     0.181 C 
ATOM     11  O4  OHN d          40.450  23.694  -0.650  0.00  0.00    -0.320 OA
ATOM     12  C16 OHN d          39.940  22.457  -1.138  0.00  0.00     0.281 C 
ATOM     13  O3  OHN d          40.148  22.060  -2.253  0.00  0.00    -0.263 OA
ENDBRANCH   5   8
ENDBRANCH   3   4
ENDBRANCH   1   3
BRANCH   1  14
ATOM     14  C9  OHN d          40.012  16.199  -1.279  0.00  0.00     0.079 C 
BRANCH  14  15
ATOM     15  C8  OHN d          39.970  15.630  -2.676  0.00  0.00     0.007 C 
BRANCH  15  16
ATOM     16  C7  OHN d          39.006  14.458  -2.587  0.00  0.00     0.000 C 
BRANCH  16  17
ATOM     17  C6  OHN d          38.600  14.220  -1.128  0.00  0.00     0.000 C 
BRANCH  17  18
ATOM     18  C5  OHN d          38.897  12.771  -0.774  0.00  0.00     0.000 C 
BRANCH  18  19
ATOM     19  C4  OHN d          39.984  12.714   0.276  0.00  0.00     0.000 C 
BRANCH  19  20
ATOM     20  C3  OHN d          41.064  11.739  -0.150  0.00  0.00    -0.000 C 
BRANCH  20  21
ATOM     21  C2  OHN d          41.405  11.967  -1.605  0.00  0.00    -0.005 C 
ATOM     22  C1  OHN d          42.350  13.135  -1.665  0.00  0.00     0.005 C 
ENDBRANCH  20  21
ENDBRANCH  19  20
ENDBRANCH  18  19
ENDBRANCH  17  18
ENDBRANCH  16  17
ENDBRANCH  15  16
ENDBRANCH  14  15
ENDBRANCH   1  14
TORSDOF 11
ENDMDL
MODEL 5
REMARK VINA RESULT:      -7.6      3.062      8.787
REMARK  11 active torsions:
REMARK  status: ('A' for Active; 'I' for Inactive)
REMARK    1  A    between atoms: C3_3  and  C2_2 
REMARK    2  A    between atoms: C4_4  and  C3_3 
REMARK    3  A    between atoms: C5_5  and  C4_4 
REMARK    4  A    between atoms: C6_6  and  C5_5 
REMARK    5  A    between atoms: C7_7  and  C6_6 
REMARK    6  A    between atoms: C8_8  and  C7_7 
REMARK    7  A    between atoms: C9_9  and  C8_8 
REMARK    8  A    between atoms: C10_10  and  C9_9 
REMARK    9  A    between atoms: C11_12  and  C10_10 
REMARK   10  A    between atoms: C11_12  and  C12_13 
REMARK       I    between atoms: C12_13  and  N1_15 
REMARK   11  A    between atoms: C13_16  and  N1_15 
ROOT
ATOM      1  C10 OHN d          40.221  16.862  -2.769  0.00  0.00     0.135 C 
ATOM      2  O1  OHN d          40.611  17.643  -3.620  0.00  0.00    -0.297 OA
ENDROOT
BRANCH   1   3
ATOM      3  C11 OHN d          40.073  15.404  -3.053  0.00  0.00     0.181 C 
BRANCH   3   4
ATOM      4  C12 OHN d          40.890  14.594  -2.080  0.00  0.00     0.225 C 
ATOM      5  N1  OHN d          40.275  13.738  -1.273  0.00  0.00    -0.347 N 
ATOM      6  H19 OHN d          39.271  13.631  -1.275  0.00  0.00     0.163 HD
ATOM      7  O2  OHN d          42.086  14.761  -2.072  0.00  0.00    -0.273 OA
BRANCH   5   8
ATOM      8  C13 OHN d          41.117  12.975  -0.399  0.00  0.00     0.186 C 
ATOM      9  C14 OHN d          40.518  12.679   0.974  0.00  0.00     0.062 C 
ATOM     10  C15 OHN d          40.897  11.235   1.342  0.00  0.00     0.181 C 
ATOM     11  O4  OHN d          41.229  10.612   0.115  0.00  0.00    -0.320 OA
ATOM     12  C16 OHN d          41.364  11.604  -0.899  0.00  0.00     0.281 C 
ATOM     13  O3  OHN d          41.663  11.340  -2.033  0.00  0.00    -0.263 OA
ENDBRANCH   5   8
ENDBRANCH   3   4
ENDBRANCH   1   3
BRANCH   1  14
ATOM     14  C9  OHN d          39.817  17.356  -1.417  0.00  0.00     0.079 C 
BRANCH  14  15
ATOM     15  C8  OHN d          39.402  18.808  -1.440  0.00  0.00     0.007 C 
BRANCH  15  16
ATOM     16  C7  OHN d          38.262  18.899  -0.438  0.00  0.00     0.000 C 
BRANCH  16  17
ATOM     17  C6  OHN d          37.993  20.364  -0.078  0.00  0.00     0.000 C 
BRANCH  17  18
ATOM     18  C5  OHN d          38.803  20.713   1.160  0.00  0.00     0.000 C 
BRANCH  18  19
ATOM     19  C4  OHN d          39.426  22.082   0.995  0.00  0.00     0.000 C 
BRANCH  19  20
ATOM     20  C3  OHN d          40.263  22.119  -0.269  0.00  0.00    -0.000 C 
BRANCH  20  21
ATOM     21  C2  OHN d          40.429  23.552  -0.723  0.00  0.00    -0.005 C 
ATOM     22  C1  OHN d          39.798  24.428   0.324  0.00  0.00     0.005 C 
ENDBRANCH  20  21
ENDBRANCH  19  20
ENDBRANCH  18  19
ENDBRANCH  17  18
ENDBRANCH  16  17
ENDBRANCH  15  16
ENDBRANCH  14  15
ENDBRANCH   1  14
TORSDOF 11
ENDMDL
MODEL 6
REMARK VINA RESULT:      -7.5      3.477      8.767
REMARK  11 active torsions:
REMARK  status: ('A' for Active; 'I' for Inactive)
REMARK    1  A    between atoms: C3_3  and  C2_2 
REMARK    2  A    between atoms: C4_4  and  C3_3 
REMARK    3  A    between atoms: C5_5  and  C4_4 
REMARK    4  A    between atoms: C6_6  and  C5_5 
REMARK    5  A    between atoms: C7_7  and  C6_6 
REMARK    6  A    between atoms: C8_8  and  C7_7 
REMARK    7  A    between atoms: C9_9  and  C8_8 
REMARK    8  A    between atoms: C10_10  and  C9_9 
REMARK    9  A    between atoms: C11_12  and  C10_10 
REMARK   10  A    between atoms: C11_12  and  C12_13 
REMARK       I    between atoms: C12_13  and  N1_15 
REMARK   11  A    between atoms: C13_16  and  N1_15 
ROOT
ATOM      1  C10 OHN d          40.424  15.379  -2.525  0.00  0.00     0.135 C 
ATOM      2  O1  OHN d          39.565  14.596  -2.892  0.00  0.00    -0.297 OA
ENDROOT
BRANCH   1   3
ATOM      3  C11 OHN d          41.770  14.910  -2.079  0.00  0.00     0.181 C 
BRANCH   3   4
ATOM      4  C12 OHN d          41.664  13.561  -1.417  0.00  0.00     0.225 C 
ATOM      5  N1  OHN d          41.187  13.481  -0.181  0.00  0.00    -0.347 N 
ATOM      6  H19 OHN d          40.915  14.303   0.339  0.00  0.00     0.163 HD
ATOM      7  O2  OHN d          42.026  12.595  -2.045  0.00  0.00    -0.273 OA
BRANCH   5   8
ATOM      8  C13 OHN d          41.081  12.163   0.374  0.00  0.00     0.186 C 
ATOM      9  C14 OHN d          41.584  12.028   1.809  0.00  0.00     0.062 C 
ATOM     10  C15 OHN d          40.613  11.096   2.553  0.00  0.00     0.181 C 
ATOM     11  O4  OHN d          39.422  11.111   1.788  0.00  0.00    -0.320 OA
ATOM     12  C16 OHN d          39.676  11.721   0.525  0.00  0.00     0.281 C 
ATOM     13  O3  OHN d          38.834  11.840  -0.323  0.00  0.00    -0.263 OA
ENDBRANCH   5   8
ENDBRANCH   3   4
ENDBRANCH   1   3
BRANCH   1  14
ATOM     14  C9  OHN d          40.134  16.843  -2.453  0.00  0.00     0.079 C 
BRANCH  14  15
ATOM     15  C8  OHN d          39.690  17.270  -1.075  0.00  0.00     0.007 C 
BRANCH  15  16
ATOM     16  C7  OHN d          39.310  18.735  -1.229  0.00  0.00     0.000 C 
BRANCH  16  17
ATOM     17  C6  OHN d          38.085  19.055  -0.366  0.00  0.00     0.000 C 
BRANCH  17  18
ATOM     18  C5  OHN d          38.495  20.059   0.701  0.00  0.00     0.000 C 
BRANCH  18  19
ATOM     19  C4  OHN d          38.800  21.393   0.057  0.00  0.00     0.000 C 
BRANCH  19  20
ATOM     20  C3  OHN d          39.375  22.345   1.087  0.00  0.00    -0.000 C 
BRANCH  20  21
ATOM     21  C2  OHN d          40.158  23.433   0.389  0.00  0.00    -0.005 C 
ATOM     22  C1  OHN d          40.414  22.967  -1.018  0.00  0.00     0.005 C 
ENDBRANCH  20  21
ENDBRANCH  19  20
ENDBRANCH  18  19
ENDBRANCH  17  18
ENDBRANCH  16  17
ENDBRANCH  15  16
ENDBRANCH  14  15
ENDBRANCH   1  14
TORSDOF 11
ENDMDL
MODEL 7
REMARK VINA RESULT:      -7.4      1.836      3.380
REMARK  11 active torsions:
REMARK  status: ('A' for Active; 'I' for Inactive)
REMARK    1  A    between atoms: C3_3  and  C2_2 
REMARK    2  A    between atoms: C4_4  and  C3_3 
REMARK    3  A    between atoms: C5_5  and  C4_4 
REMARK    4  A    between atoms: C6_6  and  C5_5 
REMARK    5  A    between atoms: C7_7  and  C6_6 
REMARK    6  A    between atoms: C8_8  and  C7_7 
REMARK    7  A    between atoms: C9_9  and  C8_8 
REMARK    8  A    between atoms: C10_10  and  C9_9 
REMARK    9  A    between atoms: C11_12  and  C10_10 
REMARK   10  A    between atoms: C11_12  and  C12_13 
REMARK       I    between atoms: C12_13  and  N1_15 
REMARK   11  A    between atoms: C13_16  and  N1_15 
ROOT
ATOM      1  C10 OHN d          40.272  14.393  -2.165  0.00  0.00     0.135 C 
ATOM      2  O1  OHN d          39.334  14.383  -2.944  0.00  0.00    -0.297 OA
ENDROOT
BRANCH   1   3
ATOM      3  C11 OHN d          40.874  15.670  -1.681  0.00  0.00     0.181 C 
BRANCH   3   4
ATOM      4  C12 OHN d          39.794  16.644  -1.289  0.00  0.00     0.225 C 
ATOM      5  N1  OHN d          40.058  17.944  -1.303  0.00  0.00    -0.347 N 
ATOM      6  H19 OHN d          40.971  18.300  -1.546  0.00  0.00     0.163 HD
ATOM      7  O2  OHN d          38.719  16.196  -0.969  0.00  0.00    -0.273 OA
BRANCH   5   8
ATOM      8  C13 OHN d          38.974  18.815  -0.952  0.00  0.00     0.186 C 
ATOM      9  C14 OHN d          38.428  18.625   0.461  0.00  0.00     0.062 C 
ATOM     10  C15 OHN d          38.125  20.021   1.031  0.00  0.00     0.181 C 
ATOM     11  O4  OHN d          38.884  20.919   0.242  0.00  0.00    -0.320 OA
ATOM     12  C16 OHN d          39.378  20.239  -0.909  0.00  0.00     0.281 C 
ATOM     13  O3  OHN d          40.037  20.782  -1.754  0.00  0.00    -0.263 OA
ENDBRANCH   5   8
ENDBRANCH   3   4
ENDBRANCH   1   3
BRANCH   1  14
ATOM     14  C9  OHN d          40.893  13.110  -1.714  0.00  0.00     0.079 C 
BRANCH  14  15
ATOM     15  C8  OHN d          41.697  13.280  -0.448  0.00  0.00     0.007 C 
BRANCH  15  16
ATOM     16  C7  OHN d          40.742  12.892   0.670  0.00  0.00     0.000 C 
BRANCH  16  17
ATOM     17  C6  OHN d          40.151  11.504   0.401  0.00  0.00     0.000 C 
BRANCH  17  18
ATOM     18  C5  OHN d          40.970  10.474   1.164  0.00  0.00     0.000 C 
BRANCH  18  19
ATOM     19  C4  OHN d          40.880  10.747   2.649  0.00  0.00     0.000 C 
BRANCH  19  20
ATOM     20  C3  OHN d          39.550  10.254   3.185  0.00  0.00    -0.000 C 
BRANCH  20  21
ATOM     21  C2  OHN d          39.082  11.169   4.294  0.00  0.00    -0.005 C 
ATOM     22  C1  OHN d          40.002  12.358   4.310  0.00  0.00     0.005 C 
ENDBRANCH  20  21
ENDBRANCH  19  20
ENDBRANCH  18  19
ENDBRANCH  17  18
ENDBRANCH  16  17
ENDBRANCH  15  16
ENDBRANCH  14  15
ENDBRANCH   1  14
TORSDOF 11
ENDMDL
MODEL 8
REMARK VINA RESULT:      -7.4      2.308      4.356
REMARK  11 active torsions:
REMARK  status: ('A' for Active; 'I' for Inactive)
REMARK    1  A    between atoms: C3_3  and  C2_2 
REMARK    2  A    between atoms: C4_4  and  C3_3 
REMARK    3  A    between atoms: C5_5  and  C4_4 
REMARK    4  A    between atoms: C6_6  and  C5_5 
REMARK    5  A    between atoms: C7_7  and  C6_6 
REMARK    6  A    between atoms: C8_8  and  C7_7 
REMARK    7  A    between atoms: C9_9  and  C8_8 
REMARK    8  A    between atoms: C10_10  and  C9_9 
REMARK    9  A    between atoms: C11_12  and  C10_10 
REMARK   10  A    between atoms: C11_12  and  C12_13 
REMARK       I    between atoms: C12_13  and  N1_15 
REMARK   11  A    between atoms: C13_16  and  N1_15 
ROOT
ATOM      1  C10 OHN d          41.458  13.308  -1.428  0.00  0.00     0.135 C 
ATOM      2  O1  OHN d          41.746  12.344  -2.117  0.00  0.00    -0.297 OA
ENDROOT
BRANCH   1   3
ATOM      3  C11 OHN d          41.800  14.699  -1.848  0.00  0.00     0.181 C 
BRANCH   3   4
ATOM      4  C12 OHN d          40.571  15.570  -1.835  0.00  0.00     0.225 C 
ATOM      5  N1  OHN d          40.510  16.593  -0.992  0.00  0.00    -0.347 N 
ATOM      6  H19 OHN d          41.256  16.793  -0.341  0.00  0.00     0.163 HD
ATOM      7  O2  OHN d          39.676  15.294  -2.598  0.00  0.00    -0.273 OA
BRANCH   5   8
ATOM      8  C13 OHN d          39.326  17.400  -1.059  0.00  0.00     0.186 C 
ATOM      9  C14 OHN d          38.770  17.837   0.294  0.00  0.00     0.062 C 
ATOM     10  C15 OHN d          38.297  19.293   0.151  0.00  0.00     0.181 C 
ATOM     11  O4  OHN d          38.970  19.793  -0.990  0.00  0.00    -0.320 OA
ATOM     12  C16 OHN d          39.566  18.712  -1.701  0.00  0.00     0.281 C 
ATOM     13  O3  OHN d          40.182  18.863  -2.722  0.00  0.00    -0.263 OA
ENDBRANCH   5   8
ENDBRANCH   3   4
ENDBRANCH   1   3
BRANCH   1  14
ATOM     14  C9  OHN d          40.800  13.119  -0.099  0.00  0.00     0.079 C 
BRANCH  14  15
ATOM     15  C8  OHN d          39.482  12.392  -0.213  0.00  0.00     0.007 C 
BRANCH  15  16
ATOM     16  C7  OHN d          39.592  11.240   0.774  0.00  0.00     0.000 C 
BRANCH  16  17
ATOM     17  C6  OHN d          40.954  10.552   0.632  0.00  0.00     0.000 C 
BRANCH  17  18
ATOM     18  C5  OHN d          41.450  10.173   2.019  0.00  0.00     0.000 C 
BRANCH  18  19
ATOM     19  C4  OHN d          40.367  10.442   3.040  0.00  0.00     0.000 C 
BRANCH  19  20
ATOM     20  C3  OHN d          40.703  11.691   3.832  0.00  0.00    -0.000 C 
BRANCH  20  21
ATOM     21  C2  OHN d          39.443  12.249   4.454  0.00  0.00    -0.005 C 
ATOM     22  C1  OHN d          38.475  11.107   4.602  0.00  0.00     0.005 C 
ENDBRANCH  20  21
ENDBRANCH  19  20
ENDBRANCH  18  19
ENDBRANCH  17  18
ENDBRANCH  16  17
ENDBRANCH  15  16
ENDBRANCH  14  15
ENDBRANCH   1  14
TORSDOF 11
ENDMDL
MODEL 9
REMARK VINA RESULT:      -7.4      1.805      3.293
REMARK  11 active torsions:
REMARK  status: ('A' for Active; 'I' for Inactive)
REMARK    1  A    between atoms: C3_3  and  C2_2 
REMARK    2  A    between atoms: C4_4  and  C3_3 
REMARK    3  A    between atoms: C5_5  and  C4_4 
REMARK    4  A    between atoms: C6_6  and  C5_5 
REMARK    5  A    between atoms: C7_7  and  C6_6 
REMARK    6  A    between atoms: C8_8  and  C7_7 
REMARK    7  A    between atoms: C9_9  and  C8_8 
REMARK    8  A    between atoms: C10_10  and  C9_9 
REMARK    9  A    between atoms: C11_12  and  C10_10 
REMARK   10  A    between atoms: C11_12  and  C12_13 
REMARK       I    between atoms: C12_13  and  N1_15 
REMARK   11  A    between atoms: C13_16  and  N1_15 
ROOT
ATOM      1  C10 OHN d          39.343  14.562  -2.227  0.00  0.00     0.135 C 
ATOM      2  O1  OHN d          39.662  15.031  -3.306  0.00  0.00    -0.297 OA
ENDROOT
BRANCH   1   3
ATOM      3  C11 OHN d          38.457  15.304  -1.283  0.00  0.00     0.181 C 
BRANCH   3   4
ATOM      4  C12 OHN d          39.133  16.564  -0.808  0.00  0.00     0.225 C 
ATOM      5  N1  OHN d          38.471  17.713  -0.854  0.00  0.00    -0.347 N 
ATOM      6  H19 OHN d          37.533  17.772  -1.222  0.00  0.00     0.163 HD
ATOM      7  O2  OHN d          40.268  16.476  -0.402  0.00  0.00    -0.273 OA
BRANCH   5   8
ATOM      8  C13 OHN d          39.164  18.864  -0.353  0.00  0.00     0.186 C 
ATOM      9  C14 OHN d          39.772  19.765  -1.425  0.00  0.00     0.062 C 
ATOM     10  C15 OHN d          39.549  21.222  -0.985  0.00  0.00     0.181 C 
ATOM     11  O4  OHN d          38.494  21.169  -0.041  0.00  0.00    -0.320 OA
ATOM     12  C16 OHN d          38.263  19.815   0.336  0.00  0.00     0.281 C 
ATOM     13  O3  OHN d          37.431  19.497   1.143  0.00  0.00    -0.263 OA
ENDBRANCH   5   8
ENDBRANCH   3   4
ENDBRANCH   1   3
BRANCH   1  14
ATOM     14  C9  OHN d          39.883  13.240  -1.787  0.00  0.00     0.079 C 
BRANCH  14  15
ATOM     15  C8  OHN d          41.363  13.298  -1.491  0.00  0.00     0.007 C 
BRANCH  15  16
ATOM     16  C7  OHN d          41.475  12.941  -0.018  0.00  0.00     0.000 C 
BRANCH  16  17
ATOM     17  C6  OHN d          40.184  12.270   0.463  0.00  0.00     0.000 C 
BRANCH  17  18
ATOM     18  C5  OHN d          40.499  10.832   0.843  0.00  0.00     0.000 C 
BRANCH  18  19
ATOM     19  C4  OHN d          40.032  10.563   2.257  0.00  0.00     0.000 C 
BRANCH  19  20
ATOM     20  C3  OHN d          40.868  11.361   3.238  0.00  0.00    -0.000 C 
BRANCH  20  21
ATOM     21  C2  OHN d          39.964  12.018   4.255  0.00  0.00    -0.005 C 
ATOM     22  C1  OHN d          38.778  11.114   4.449  0.00  0.00     0.005 C 
ENDBRANCH  20  21
ENDBRANCH  19  20
ENDBRANCH  18  19
ENDBRANCH  17  18
ENDBRANCH  16  17
ENDBRANCH  15  16
ENDBRANCH  14  15
ENDBRANCH   1  14
TORSDOF 11
ENDMDL
MODEL 10
REMARK VINA RESULT:      -7.2      3.406      8.862
REMARK  11 active torsions:
REMARK  status: ('A' for Active; 'I' for Inactive)
REMARK    1  A    between atoms: C3_3  and  C2_2 
REMARK    2  A    between atoms: C4_4  and  C3_3 
REMARK    3  A    between atoms: C5_5  and  C4_4 
REMARK    4  A    between atoms: C6_6  and  C5_5 
REMARK    5  A    between atoms: C7_7  and  C6_6 
REMARK    6  A    between atoms: C8_8  and  C7_7 
REMARK    7  A    between atoms: C9_9  and  C8_8 
REMARK    8  A    between atoms: C10_10  and  C9_9 
REMARK    9  A    between atoms: C11_12  and  C10_10 
REMARK   10  A    between atoms: C11_12  and  C12_13 
REMARK       I    between atoms: C12_13  and  N1_15 
REMARK   11  A    between atoms: C13_16  and  N1_15 
ROOT
ATOM      1  C10 OHN d          40.367  15.466  -2.004  0.00  0.00     0.135 C 
ATOM      2  O1  OHN d          39.968  15.149  -3.111  0.00  0.00    -0.297 OA
ENDROOT
BRANCH   1   3
ATOM      3  C11 OHN d          41.319  14.607  -1.240  0.00  0.00     0.181 C 
BRANCH   3   4
ATOM      4  C12 OHN d          40.578  13.502  -0.532  0.00  0.00     0.225 C 
ATOM      5  N1  OHN d          41.160  12.880   0.486  0.00  0.00    -0.347 N 
ATOM      6  H19 OHN d          42.096  13.109   0.785  0.00  0.00     0.163 HD
ATOM      7  O2  OHN d          39.472  13.221  -0.927  0.00  0.00    -0.273 OA
BRANCH   5   8
ATOM      8  C13 OHN d          40.383  11.864   1.136  0.00  0.00     0.186 C 
ATOM      9  C14 OHN d          40.960  10.454   1.036  0.00  0.00     0.062 C 
ATOM     10  C15 OHN d          40.746   9.771   2.398  0.00  0.00     0.181 C 
ATOM     11  O4  OHN d          40.542  10.828   3.317  0.00  0.00    -0.320 OA
ATOM     12  C16 OHN d          40.327  12.043   2.604  0.00  0.00     0.281 C 
ATOM     13  O3  OHN d          40.109  13.090   3.151  0.00  0.00    -0.263 OA
ENDBRANCH   5   8
ENDBRANCH   3   4
ENDBRANCH   1   3
BRANCH   1  14
ATOM     14  C9  OHN d          39.862  16.709  -1.345  0.00  0.00     0.079 C 
BRANCH  14  15
ATOM     15  C8  OHN d          39.877  17.896  -2.277  0.00  0.00     0.007 C 
BRANCH  15  16
ATOM     16  C7  OHN d          39.592  19.092  -1.383  0.00  0.00     0.000 C 
BRANCH  16  17
ATOM     17  C6  OHN d          38.718  18.668  -0.198  0.00  0.00     0.000 C 
BRANCH  17  18
ATOM     18  C5  OHN d          38.153  19.919   0.458  0.00  0.00     0.000 C 
BRANCH  18  19
ATOM     19  C4  OHN d          38.872  21.141  -0.069  0.00  0.00     0.000 C 
BRANCH  19  20
ATOM     20  C3  OHN d          39.279  22.039   1.083  0.00  0.00    -0.000 C 
BRANCH  20  21
ATOM     21  C2  OHN d          39.897  23.307   0.542  0.00  0.00    -0.005 C 
ATOM     22  C1  OHN d          40.329  23.026  -0.871  0.00  0.00     0.005 C 
ENDBRANCH  20  21
ENDBRANCH  19  20
ENDBRANCH  18  19
ENDBRANCH  17  18
ENDBRANCH  16  17
ENDBRANCH  15  16
ENDBRANCH  14  15
ENDBRANCH   1  14
TORSDOF 11
ENDMDL
MODEL 11
REMARK VINA RESULT:      -7.2      2.808      8.630
REMARK  11 active torsions:
REMARK  status: ('A' for Active; 'I' for Inactive)
REMARK    1  A    between atoms: C3_3  and  C2_2 
REMARK    2  A    between atoms: C4_4  and  C3_3 
REMARK    3  A    between atoms: C5_5  and  C4_4 
REMARK    4  A    between atoms: C6_6  and  C5_5 
REMARK    5  A    between atoms: C7_7  and  C6_6 
REMARK    6  A    between atoms: C8_8  and  C7_7 
REMARK    7  A    between atoms: C9_9  and  C8_8 
REMARK    8  A    between atoms: C10_10  and  C9_9 
REMARK    9  A    between atoms: C11_12  and  C10_10 
REMARK   10  A    between atoms: C11_12  and  C12_13 
REMARK       I    between atoms: C12_13  and  N1_15 
REMARK   11  A    between atoms: C13_16  and  N1_15 
ROOT
ATOM      1  C10 OHN d          39.734  17.433  -1.480  0.00  0.00     0.135 C 
ATOM      2  O1  OHN d          39.612  16.779  -0.458  0.00  0.00    -0.297 OA
ENDROOT
BRANCH   1   3
ATOM      3  C11 OHN d          40.259  16.826  -2.739  0.00  0.00     0.181 C 
BRANCH   3   4
ATOM      4  C12 OHN d          40.102  15.328  -2.705  0.00  0.00     0.225 C 
ATOM      5  N1  OHN d          40.798  14.623  -1.822  0.00  0.00    -0.347 N 
ATOM      6  H19 OHN d          41.449  15.060  -1.186  0.00  0.00     0.163 HD
ATOM      7  O2  OHN d          39.343  14.822  -3.498  0.00  0.00    -0.273 OA
BRANCH   5   8
ATOM      8  C13 OHN d          40.573  13.207  -1.823  0.00  0.00     0.186 C 
ATOM      9  C14 OHN d          41.797  12.362  -1.477  0.00  0.00     0.062 C 
ATOM     10  C15 OHN d          41.323  11.206  -0.581  0.00  0.00     0.181 C 
ATOM     11  O4  OHN d          40.076  11.628  -0.057  0.00  0.00    -0.320 OA
ATOM     12  C16 OHN d          39.629  12.780  -0.766  0.00  0.00     0.281 C 
ATOM     13  O3  OHN d          38.585  13.325  -0.530  0.00  0.00    -0.263 OA
ENDBRANCH   5   8
ENDBRANCH   3   4
ENDBRANCH   1   3
BRANCH   1  14
ATOM     14  C9  OHN d          39.414  18.893  -1.486  0.00  0.00     0.079 C 
BRANCH  14  15
ATOM     15  C8  OHN d          38.233  19.223  -0.607  0.00  0.00     0.007 C 
BRANCH  15  16
ATOM     16  C7  OHN d          38.846  19.717   0.694  0.00  0.00     0.000 C 
BRANCH  16  17
ATOM     17  C6  OHN d          38.353  21.134   1.005  0.00  0.00     0.000 C 
BRANCH  17  18
ATOM     18  C5  OHN d          39.557  22.005   1.326  0.00  0.00     0.000 C 
BRANCH  18  19
ATOM     19  C4  OHN d          39.361  23.386   0.739  0.00  0.00     0.000 C 
BRANCH  19  20
ATOM     20  C3  OHN d          40.488  23.704  -0.223  0.00  0.00    -0.000 C 
BRANCH  20  21
ATOM     21  C2  OHN d          40.928  22.438  -0.923  0.00  0.00    -0.005 C 
ATOM     22  C1  OHN d          40.076  22.288  -2.153  0.00  0.00     0.005 C 
ENDBRANCH  20  21
ENDBRANCH  19  20
ENDBRANCH  18  19
ENDBRANCH  17  18
ENDBRANCH  16  17
ENDBRANCH  15  16
ENDBRANCH  14  15
ENDBRANCH   1  14
TORSDOF 11
ENDMDL
MODEL 12
REMARK VINA RESULT:      -6.8      2.180      4.470
REMARK  11 active torsions:
REMARK  status: ('A' for Active; 'I' for Inactive)
REMARK    1  A    between atoms: C3_3  and  C2_2 
REMARK    2  A    between atoms: C4_4  and  C3_3 
REMARK    3  A    between atoms: C5_5  and  C4_4 
REMARK    4  A    between atoms: C6_6  and  C5_5 
REMARK    5  A    between atoms: C7_7  and  C6_6 
REMARK    6  A    between atoms: C8_8  and  C7_7 
REMARK    7  A    between atoms: C9_9  and  C8_8 
REMARK    8  A    between atoms: C10_10  and  C9_9 
REMARK    9  A    between atoms: C11_12  and  C10_10 
REMARK   10  A    between atoms: C11_12  and  C12_13 
REMARK       I    between atoms: C12_13  and  N1_15 
REMARK   11  A    between atoms: C13_16  and  N1_15 
ROOT
ATOM      1  C10 OHN d          39.276  17.627  -0.410  0.00  0.00     0.135 C 
ATOM      2  O1  OHN d          39.725  18.279  -1.337  0.00  0.00    -0.297 OA
ENDROOT
BRANCH   1   3
ATOM      3  C11 OHN d          38.414  18.249   0.639  0.00  0.00     0.181 C 
BRANCH   3   4
ATOM      4  C12 OHN d          38.241  19.721   0.371  0.00  0.00     0.225 C 
ATOM      5  N1  OHN d          39.309  20.507   0.350  0.00  0.00    -0.347 N 
ATOM      6  H19 OHN d          40.236  20.151   0.533  0.00  0.00     0.163 HD
ATOM      7  O2  OHN d          37.119  20.133   0.187  0.00  0.00    -0.273 OA
BRANCH   5   8
ATOM      8  C13 OHN d          39.074  21.891   0.054  0.00  0.00     0.186 C 
ATOM      9  C14 OHN d          39.495  22.864   1.153  0.00  0.00     0.062 C 
ATOM     10  C15 OHN d          40.130  24.086   0.469  0.00  0.00     0.181 C 
ATOM     11  O4  OHN d          40.496  23.642  -0.825  0.00  0.00    -0.320 OA
ATOM     12  C16 OHN d          39.891  22.377  -1.081  0.00  0.00     0.281 C 
ATOM     13  O3  OHN d          40.025  21.788  -2.119  0.00  0.00    -0.263 OA
ENDBRANCH   5   8
ENDBRANCH   3   4
ENDBRANCH   1   3
BRANCH   1  14
ATOM     14  C9  OHN d          39.627  16.182  -0.261  0.00  0.00     0.079 C 
BRANCH  14  15
ATOM     15  C8  OHN d          39.204  15.365  -1.458  0.00  0.00     0.007 C 
BRANCH  15  16
ATOM     16  C7  OHN d          40.485  14.713  -1.953  0.00  0.00     0.000 C 
BRANCH  16  17
ATOM     17  C6  OHN d          41.224  15.659  -2.906  0.00  0.00     0.000 C 
BRANCH  17  18
ATOM     18  C5  OHN d          40.195  16.379  -3.764  0.00  0.00     0.000 C 
BRANCH  18  19
ATOM     19  C4  OHN d          40.721  17.743  -4.155  0.00  0.00     0.000 C 
BRANCH  19  20
ATOM     20  C3  OHN d          40.744  17.876  -5.665  0.00  0.00    -0.000 C 
BRANCH  20  21
ATOM     21  C2  OHN d          41.588  19.068  -6.055  0.00  0.00    -0.005 C 
ATOM     22  C1  OHN d          42.244  18.740  -7.367  0.00  0.00     0.005 C 
ENDBRANCH  20  21
ENDBRANCH  19  20
ENDBRANCH  18  19
ENDBRANCH  17  18
ENDBRANCH  16  17
ENDBRANCH  15  16
ENDBRANCH  14  15
ENDBRANCH   1  14
TORSDOF 11
ENDMDL
MODEL 13
REMARK VINA RESULT:      -6.7      1.299      1.777
REMARK  11 active torsions:
REMARK  status: ('A' for Active; 'I' for Inactive)
REMARK    1  A    between atoms: C3_3  and  C2_2 
REMARK    2  A    between atoms: C4_4  and  C3_3 
REMARK    3  A    between atoms: C5_5  and  C4_4 
REMARK    4  A    between atoms: C6_6  and  C5_5 
REMARK    5  A    between atoms: C7_7  and  C6_6 
REMARK    6  A    between atoms: C8_8  and  C7_7 
REMARK    7  A    between atoms: C9_9  and  C8_8 
REMARK    8  A    between atoms: C10_10  and  C9_9 
REMARK    9  A    between atoms: C11_12  and  C10_10 
REMARK   10  A    between atoms: C11_12  and  C12_13 
REMARK       I    between atoms: C12_13  and  N1_15 
REMARK   11  A    between atoms: C13_16  and  N1_15 
ROOT
ATOM      1  C10 OHN d          39.189  17.504  -0.420  0.00  0.00     0.135 C 
ATOM      2  O1  OHN d          39.013  17.715   0.767  0.00  0.00    -0.297 OA
ENDROOT
BRANCH   1   3
ATOM      3  C11 OHN d          38.750  18.479  -1.461  0.00  0.00     0.181 C 
BRANCH   3   4
ATOM      4  C12 OHN d          39.595  19.725  -1.405  0.00  0.00     0.225 C 
ATOM      5  N1  OHN d          39.407  20.591  -0.417  0.00  0.00    -0.347 N 
ATOM      6  H19 OHN d          38.697  20.451   0.287  0.00  0.00     0.163 HD
ATOM      7  O2  OHN d          40.416  19.890  -2.275  0.00  0.00    -0.273 OA
BRANCH   5   8
ATOM      8  C13 OHN d          40.270  21.736  -0.405  0.00  0.00     0.186 C 
ATOM      9  C14 OHN d          40.078  22.697  -1.576  0.00  0.00     0.062 C 
ATOM     10  C15 OHN d          40.193  24.128  -1.024  0.00  0.00     0.181 C 
ATOM     11  O4  OHN d          39.963  24.010   0.368  0.00  0.00    -0.320 OA
ATOM     12  C16 OHN d          40.009  22.635   0.742  0.00  0.00     0.281 C 
ATOM     13  O3  OHN d          39.864  22.263   1.875  0.00  0.00    -0.263 OA
ENDBRANCH   5   8
ENDBRANCH   3   4
ENDBRANCH   1   3
BRANCH   1  14
ATOM     14  C9  OHN d          39.804  16.220  -0.877  0.00  0.00     0.079 C 
BRANCH  14  15
ATOM     15  C8  OHN d          40.246  16.281  -2.319  0.00  0.00     0.007 C 
BRANCH  15  16
ATOM     16  C7  OHN d          41.369  15.260  -2.421  0.00  0.00     0.000 C 
BRANCH  16  17
ATOM     17  C6  OHN d          41.355  14.337  -1.198  0.00  0.00     0.000 C 
BRANCH  17  18
ATOM     18  C5  OHN d          41.500  12.900  -1.675  0.00  0.00     0.000 C 
BRANCH  18  19
ATOM     19  C4  OHN d          41.082  11.951  -0.574  0.00  0.00     0.000 C 
BRANCH  19  20
ATOM     20  C3  OHN d          41.187  12.641   0.772  0.00  0.00    -0.000 C 
BRANCH  20  21
ATOM     21  C2  OHN d          40.422  11.849   1.807  0.00  0.00    -0.005 C 
ATOM     22  C1  OHN d          39.938  10.592   1.139  0.00  0.00     0.005 C 
ENDBRANCH  20  21
ENDBRANCH  19  20
ENDBRANCH  18  19
ENDBRANCH  17  18
ENDBRANCH  16  17
ENDBRANCH  15  16
ENDBRANCH  14  15
ENDBRANCH   1  14
TORSDOF 11
ENDMDL
