MODEL 1
REMARK VINA RESULT:      -4.7      0.000      0.000
REMARK  11 active torsions:
REMARK  status: ('A' for Active; 'I' for Inactive)
REMARK    1  A    between atoms: C3_3  and  C2_2 
REMARK    2  A    between atoms: C4_4  and  C3_3 
REMARK    3  A    between atoms: C5_5  and  C4_4 
REMARK    4  A    between atoms: C6_6  and  C5_5 
REMARK    5  A    between atoms: C7_7  and  C6_6 
REMARK    6  A    between atoms: C8_8  and  C7_7 
REMARK    7  A    between atoms: C9_9  and  C8_8 
REMARK    8  A    between atoms: C10_10  and  C9_9 
REMARK    9  A    between atoms: C11_12  and  C10_10 
REMARK   10  A    between atoms: C11_12  and  C12_13 
REMARK       I    between atoms: C12_13  and  N1_15 
REMARK   11  A    between atoms: C13_16  and  N1_15 
ROOT
ATOM      1  C10 OHN d          39.387  -2.339   8.068  0.00  0.00     0.135 C 
ATOM      2  O1  OHN d          39.006  -3.270   8.756  0.00  0.00    -0.297 OA
ENDROOT
BRANCH   1   3
ATOM      3  C11 OHN d          38.736  -2.010   6.766  0.00  0.00     0.181 C 
BRANCH   3   4
ATOM      4  C12 OHN d          37.864  -3.151   6.311  0.00  0.00     0.225 C 
ATOM      5  N1  OHN d          38.433  -4.254   5.840  0.00  0.00    -0.347 N 
ATOM      6  H19 OHN d          39.435  -4.342   5.755  0.00  0.00     0.163 HD
ATOM      7  O2  OHN d          36.667  -3.013   6.391  0.00  0.00    -0.273 OA
BRANCH   5   8
ATOM      8  C13 OHN d          37.544  -5.313   5.459  0.00  0.00     0.186 C 
ATOM      9  C14 OHN d          37.829  -5.929   4.092  0.00  0.00     0.062 C 
ATOM     10  C15 OHN d          37.622  -7.448   4.218  0.00  0.00     0.181 C 
ATOM     11  O4  OHN d          37.713  -7.723   5.604  0.00  0.00    -0.320 OA
ATOM     12  C16 OHN d          37.665  -6.501   6.334  0.00  0.00     0.281 C 
ATOM     13  O3  OHN d          37.704  -6.456   7.534  0.00  0.00    -0.263 OA
ENDBRANCH   5   8
ENDBRANCH   3   4
ENDBRANCH   1   3
BRANCH   1  14
ATOM     14  C9  OHN d          40.570  -1.526   8.485  0.00  0.00     0.079 C 
BRANCH  14  15
ATOM     15  C8  OHN d          40.517  -1.145   9.945  0.00  0.00     0.007 C 
BRANCH  15  16
ATOM     16  C7  OHN d          41.712  -0.228  10.148  0.00  0.00     0.000 C 
BRANCH  16  17
ATOM     17  C6  OHN d          42.334   0.136   8.796  0.00  0.00     0.000 C 
BRANCH  17  18
ATOM     18  C5  OHN d          42.513   1.645   8.737  0.00  0.00     0.000 C 
BRANCH  18  19
ATOM     19  C4  OHN d          41.513   2.241   7.771  0.00  0.00     0.000 C 
BRANCH  19  20
ATOM     20  C3  OHN d          40.326   2.797   8.534  0.00  0.00    -0.000 C 
BRANCH  20  21
ATOM     21  C2  OHN d          39.098   1.969   8.231  0.00  0.00    -0.005 C 
ATOM     22  C1  OHN d          39.064   1.748   6.744  0.00  0.00     0.005 C 
ENDBRANCH  20  21
ENDBRANCH  19  20
ENDBRANCH  18  19
ENDBRANCH  17  18
ENDBRANCH  16  17
ENDBRANCH  15  16
ENDBRANCH  14  15
ENDBRANCH   1  14
TORSDOF 11
ENDMDL
MODEL 2
REMARK VINA RESULT:      -4.7      4.993      7.828
REMARK  11 active torsions:
REMARK  status: ('A' for Active; 'I' for Inactive)
REMARK    1  A    between atoms: C3_3  and  C2_2 
REMARK    2  A    between atoms: C4_4  and  C3_3 
REMARK    3  A    between atoms: C5_5  and  C4_4 
REMARK    4  A    between atoms: C6_6  and  C5_5 
REMARK    5  A    between atoms: C7_7  and  C6_6 
REMARK    6  A    between atoms: C8_8  and  C7_7 
REMARK    7  A    between atoms: C9_9  and  C8_8 
REMARK    8  A    between atoms: C10_10  and  C9_9 
REMARK    9  A    between atoms: C11_12  and  C10_10 
REMARK   10  A    between atoms: C11_12  and  C12_13 
REMARK       I    between atoms: C12_13  and  N1_15 
REMARK   11  A    between atoms: C13_16  and  N1_15 
ROOT
ATOM      1  C10 OHN d          45.047   1.916   7.326  0.00  0.00     0.135 C 
ATOM      2  O1  OHN d          44.296   2.140   6.393  0.00  0.00    -0.297 OA
ENDROOT
BRANCH   1   3
ATOM      3  C11 OHN d          44.672   0.977   8.424  0.00  0.00     0.181 C 
BRANCH   3   4
ATOM      4  C12 OHN d          43.203   1.095   8.737  0.00  0.00     0.225 C 
ATOM      5  N1  OHN d          42.318   0.550   7.913  0.00  0.00    -0.347 N 
ATOM      6  H19 OHN d          42.599   0.077   7.066  0.00  0.00     0.163 HD
ATOM      7  O2  OHN d          42.887   1.693   9.738  0.00  0.00    -0.273 OA
BRANCH   5   8
ATOM      8  C13 OHN d          40.940   0.670   8.292  0.00  0.00     0.186 C 
ATOM      9  C14 OHN d          40.150   1.720   7.516  0.00  0.00     0.062 C 
ATOM     10  C15 OHN d          38.755   1.135   7.234  0.00  0.00     0.181 C 
ATOM     11  O4  OHN d          38.903  -0.266   7.379  0.00  0.00    -0.320 OA
ATOM     12  C16 OHN d          40.158  -0.550   7.991  0.00  0.00     0.281 C 
ATOM     13  O3  OHN d          40.521  -1.667   8.245  0.00  0.00    -0.263 OA
ENDBRANCH   5   8
ENDBRANCH   3   4
ENDBRANCH   1   3
BRANCH   1  14
ATOM     14  C9  OHN d          46.357   2.628   7.430  0.00  0.00     0.079 C 
BRANCH  14  15
ATOM     15  C8  OHN d          47.467   1.889   6.724  0.00  0.00     0.007 C 
BRANCH  15  16
ATOM     16  C7  OHN d          48.666   2.821   6.807  0.00  0.00     0.000 C 
BRANCH  16  17
ATOM     17  C6  OHN d          48.804   3.376   8.229  0.00  0.00     0.000 C 
BRANCH  17  18
ATOM     18  C5  OHN d          50.018   2.733   8.882  0.00  0.00     0.000 C 
BRANCH  18  19
ATOM     19  C4  OHN d          49.590   1.515   9.669  0.00  0.00     0.000 C 
BRANCH  19  20
ATOM     20  C3  OHN d          48.415   1.863  10.563  0.00  0.00    -0.000 C 
BRANCH  20  21
ATOM     21  C2  OHN d          47.532   0.648  10.733  0.00  0.00    -0.005 C 
ATOM     22  C1  OHN d          47.903  -0.329   9.651  0.00  0.00     0.005 C 
ENDBRANCH  20  21
ENDBRANCH  19  20
ENDBRANCH  18  19
ENDBRANCH  17  18
ENDBRANCH  16  17
ENDBRANCH  15  16
ENDBRANCH  14  15
ENDBRANCH   1  14
TORSDOF 11
ENDMDL
MODEL 3
REMARK VINA RESULT:      -4.6      4.251      6.769
REMARK  11 active torsions:
REMARK  status: ('A' for Active; 'I' for Inactive)
REMARK    1  A    between atoms: C3_3  and  C2_2 
REMARK    2  A    between atoms: C4_4  and  C3_3 
REMARK    3  A    between atoms: C5_5  and  C4_4 
REMARK    4  A    between atoms: C6_6  and  C5_5 
REMARK    5  A    between atoms: C7_7  and  C6_6 
REMARK    6  A    between atoms: C8_8  and  C7_7 
REMARK    7  A    between atoms: C9_9  and  C8_8 
REMARK    8  A    between atoms: C10_10  and  C9_9 
REMARK    9  A    between atoms: C11_12  and  C10_10 
REMARK   10  A    between atoms: C11_12  and  C12_13 
REMARK       I    between atoms: C12_13  and  N1_15 
REMARK   11  A    between atoms: C13_16  and  N1_15 
ROOT
ATOM      1  C10 OHN d          43.940   1.821   7.289  0.00  0.00     0.135 C 
ATOM      2  O1  OHN d          44.203   0.924   6.507  0.00  0.00    -0.297 OA
ENDROOT
BRANCH   1   3
ATOM      3  C11 OHN d          42.575   2.421   7.360  0.00  0.00     0.181 C 
BRANCH   3   4
ATOM      4  C12 OHN d          41.646   1.523   8.134  0.00  0.00     0.225 C 
ATOM      5  N1  OHN d          41.765   0.207   8.012  0.00  0.00    -0.347 N 
ATOM      6  H19 OHN d          42.446  -0.211   7.396  0.00  0.00     0.163 HD
ATOM      7  O2  OHN d          40.816   2.045   8.840  0.00  0.00    -0.273 OA
BRANCH   5   8
ATOM      8  C13 OHN d          40.871  -0.586   8.805  0.00  0.00     0.186 C 
ATOM      9  C14 OHN d          39.788  -1.317   8.015  0.00  0.00     0.062 C 
ATOM     10  C15 OHN d          39.628  -2.715   8.635  0.00  0.00     0.181 C 
ATOM     11  O4  OHN d          40.825  -2.943   9.356  0.00  0.00    -0.320 OA
ATOM     12  C16 OHN d          41.552  -1.722   9.466  0.00  0.00     0.281 C 
ATOM     13  O3  OHN d          42.598  -1.637  10.051  0.00  0.00    -0.263 OA
ENDBRANCH   5   8
ENDBRANCH   3   4
ENDBRANCH   1   3
BRANCH   1  14
ATOM     14  C9  OHN d          45.004   2.394   8.169  0.00  0.00     0.079 C 
BRANCH  14  15
ATOM     15  C8  OHN d          44.811   2.017   9.618  0.00  0.00     0.007 C 
BRANCH  15  16
ATOM     16  C7  OHN d          45.418   0.628   9.739  0.00  0.00     0.000 C 
BRANCH  16  17
ATOM     17  C6  OHN d          46.777   0.706  10.442  0.00  0.00     0.000 C 
BRANCH  17  18
ATOM     18  C5  OHN d          47.772  -0.143   9.666  0.00  0.00     0.000 C 
BRANCH  18  19
ATOM     19  C4  OHN d          48.290   0.636   8.476  0.00  0.00     0.000 C 
BRANCH  19  20
ATOM     20  C3  OHN d          48.973   1.905   8.947  0.00  0.00    -0.000 C 
BRANCH  20  21
ATOM     21  C2  OHN d          48.713   3.016   7.955  0.00  0.00    -0.005 C 
ATOM     22  C1  OHN d          48.270   2.373   6.670  0.00  0.00     0.005 C 
ENDBRANCH  20  21
ENDBRANCH  19  20
ENDBRANCH  18  19
ENDBRANCH  17  18
ENDBRANCH  16  17
ENDBRANCH  15  16
ENDBRANCH  14  15
ENDBRANCH   1  14
TORSDOF 11
ENDMDL
MODEL 4
REMARK VINA RESULT:      -4.6      3.984      6.483
REMARK  11 active torsions:
REMARK  status: ('A' for Active; 'I' for Inactive)
REMARK    1  A    between atoms: C3_3  and  C2_2 
REMARK    2  A    between atoms: C4_4  and  C3_3 
REMARK    3  A    between atoms: C5_5  and  C4_4 
REMARK    4  A    between atoms: C6_6  and  C5_5 
REMARK    5  A    between atoms: C7_7  and  C6_6 
REMARK    6  A    between atoms: C8_8  and  C7_7 
REMARK    7  A    between atoms: C9_9  and  C8_8 
REMARK    8  A    between atoms: C10_10  and  C9_9 
REMARK    9  A    between atoms: C11_12  and  C10_10 
REMARK   10  A    between atoms: C11_12  and  C12_13 
REMARK       I    between atoms: C12_13  and  N1_15 
REMARK   11  A    between atoms: C13_16  and  N1_15 
ROOT
ATOM      1  C10 OHN d          43.705   1.391   7.669  0.00  0.00     0.135 C 
ATOM      2  O1  OHN d          42.709   1.950   7.242  0.00  0.00    -0.297 OA
ENDROOT
BRANCH   1   3
ATOM      3  C11 OHN d          43.641   0.466   8.839  0.00  0.00     0.181 C 
BRANCH   3   4
ATOM      4  C12 OHN d          42.214   0.072   9.120  0.00  0.00     0.225 C 
ATOM      5  N1  OHN d          41.565  -0.685   8.244  0.00  0.00    -0.347 N 
ATOM      6  H19 OHN d          41.993  -0.987   7.381  0.00  0.00     0.163 HD
ATOM      7  O2  OHN d          41.710   0.472  10.143  0.00  0.00    -0.273 OA
BRANCH   5   8
ATOM      8  C13 OHN d          40.223  -1.050   8.594  0.00  0.00     0.186 C 
ATOM      9  C14 OHN d          39.216  -0.964   7.449  0.00  0.00     0.062 C 
ATOM     10  C15 OHN d          38.277  -2.177   7.567  0.00  0.00     0.181 C 
ATOM     11  O4  OHN d          38.977  -3.113   8.367  0.00  0.00    -0.320 OA
ATOM     12  C16 OHN d          40.101  -2.477   8.969  0.00  0.00     0.281 C 
ATOM     13  O3  OHN d          40.851  -3.048   9.714  0.00  0.00    -0.263 OA
ENDBRANCH   5   8
ENDBRANCH   3   4
ENDBRANCH   1   3
BRANCH   1  14
ATOM     14  C9  OHN d          45.044   1.665   7.065  0.00  0.00     0.079 C 
BRANCH  14  15
ATOM     15  C8  OHN d          45.817   2.706   7.839  0.00  0.00     0.007 C 
BRANCH  15  16
ATOM     16  C7  OHN d          47.105   2.894   7.052  0.00  0.00     0.000 C 
BRANCH  16  17
ATOM     17  C6  OHN d          47.958   1.623   7.124  0.00  0.00     0.000 C 
BRANCH  17  18
ATOM     18  C5  OHN d          48.511   1.493   8.535  0.00  0.00     0.000 C 
BRANCH  18  19
ATOM     19  C4  OHN d          48.320   0.076   9.030  0.00  0.00     0.000 C 
BRANCH  19  20
ATOM     20  C3  OHN d          47.168   0.023  10.014  0.00  0.00    -0.000 C 
BRANCH  20  21
ATOM     21  C2  OHN d          47.358   1.086  11.071  0.00  0.00    -0.005 C 
ATOM     22  C1  OHN d          45.998   1.641  11.395  0.00  0.00     0.005 C 
ENDBRANCH  20  21
ENDBRANCH  19  20
ENDBRANCH  18  19
ENDBRANCH  17  18
ENDBRANCH  16  17
ENDBRANCH  15  16
ENDBRANCH  14  15
ENDBRANCH   1  14
TORSDOF 11
ENDMDL
MODEL 5
REMARK VINA RESULT:      -4.6      4.568      7.395
REMARK  11 active torsions:
REMARK  status: ('A' for Active; 'I' for Inactive)
REMARK    1  A    between atoms: C3_3  and  C2_2 
REMARK    2  A    between atoms: C4_4  and  C3_3 
REMARK    3  A    between atoms: C5_5  and  C4_4 
REMARK    4  A    between atoms: C6_6  and  C5_5 
REMARK    5  A    between atoms: C7_7  and  C6_6 
REMARK    6  A    between atoms: C8_8  and  C7_7 
REMARK    7  A    between atoms: C9_9  and  C8_8 
REMARK    8  A    between atoms: C10_10  and  C9_9 
REMARK    9  A    between atoms: C11_12  and  C10_10 
REMARK   10  A    between atoms: C11_12  and  C12_13 
REMARK       I    between atoms: C12_13  and  N1_15 
REMARK   11  A    between atoms: C13_16  and  N1_15 
ROOT
ATOM      1  C10 OHN d          44.800   1.441   7.698  0.00  0.00     0.135 C 
ATOM      2  O1  OHN d          44.250   1.306   6.619  0.00  0.00    -0.297 OA
ENDROOT
BRANCH   1   3
ATOM      3  C11 OHN d          44.433   0.598   8.874  0.00  0.00     0.181 C 
BRANCH   3   4
ATOM      4  C12 OHN d          42.944   0.626   9.097  0.00  0.00     0.225 C 
ATOM      5  N1  OHN d          42.139   0.123   8.170  0.00  0.00    -0.347 N 
ATOM      6  H19 OHN d          42.496  -0.258   7.305  0.00  0.00     0.163 HD
ATOM      7  O2  OHN d          42.536   1.117  10.124  0.00  0.00    -0.273 OA
BRANCH   5   8
ATOM      8  C13 OHN d          40.736   0.151   8.464  0.00  0.00     0.186 C 
ATOM      9  C14 OHN d          39.969   1.306   7.825  0.00  0.00     0.062 C 
ATOM     10  C15 OHN d          38.615   0.754   7.349  0.00  0.00     0.181 C 
ATOM     11  O4  OHN d          38.794  -0.648   7.260  0.00  0.00    -0.320 OA
ATOM     12  C16 OHN d          40.013  -1.012   7.903  0.00  0.00     0.281 C 
ATOM     13  O3  OHN d          40.391  -2.149   7.986  0.00  0.00    -0.263 OA
ENDBRANCH   5   8
ENDBRANCH   3   4
ENDBRANCH   1   3
BRANCH   1  14
ATOM     14  C9  OHN d          45.828   2.509   7.895  0.00  0.00     0.079 C 
BRANCH  14  15
ATOM     15  C8  OHN d          46.780   2.607   6.728  0.00  0.00     0.007 C 
BRANCH  15  16
ATOM     16  C7  OHN d          47.995   1.799   7.153  0.00  0.00     0.000 C 
BRANCH  16  17
ATOM     17  C6  OHN d          48.753   2.531   8.265  0.00  0.00     0.000 C 
BRANCH  17  18
ATOM     18  C5  OHN d          49.180   1.513   9.310  0.00  0.00     0.000 C 
BRANCH  18  19
ATOM     19  C4  OHN d          48.447   0.209   9.084  0.00  0.00     0.000 C 
BRANCH  19  20
ATOM     20  C3  OHN d          47.621  -0.139  10.307  0.00  0.00    -0.000 C 
BRANCH  20  21
ATOM     21  C2  OHN d          47.820   0.919  11.369  0.00  0.00    -0.005 C 
ATOM     22  C1  OHN d          46.464   1.250  11.929  0.00  0.00     0.005 C 
ENDBRANCH  20  21
ENDBRANCH  19  20
ENDBRANCH  18  19
ENDBRANCH  17  18
ENDBRANCH  16  17
ENDBRANCH  15  16
ENDBRANCH  14  15
ENDBRANCH   1  14
TORSDOF 11
ENDMDL
MODEL 6
REMARK VINA RESULT:      -4.6      2.876      4.810
REMARK  11 active torsions:
REMARK  status: ('A' for Active; 'I' for Inactive)
REMARK    1  A    between atoms: C3_3  and  C2_2 
REMARK    2  A    between atoms: C4_4  and  C3_3 
REMARK    3  A    between atoms: C5_5  and  C4_4 
REMARK    4  A    between atoms: C6_6  and  C5_5 
REMARK    5  A    between atoms: C7_7  and  C6_6 
REMARK    6  A    between atoms: C8_8  and  C7_7 
REMARK    7  A    between atoms: C9_9  and  C8_8 
REMARK    8  A    between atoms: C10_10  and  C9_9 
REMARK    9  A    between atoms: C11_12  and  C10_10 
REMARK   10  A    between atoms: C11_12  and  C12_13 
REMARK       I    between atoms: C12_13  and  N1_15 
REMARK   11  A    between atoms: C13_16  and  N1_15 
ROOT
ATOM      1  C10 OHN d          39.319   1.784   7.361  0.00  0.00     0.135 C 
ATOM      2  O1  OHN d          38.685   1.852   6.322  0.00  0.00    -0.297 OA
ENDROOT
BRANCH   1   3
ATOM      3  C11 OHN d          38.678   1.363   8.642  0.00  0.00     0.181 C 
BRANCH   3   4
ATOM      4  C12 OHN d          38.443  -0.125   8.647  0.00  0.00     0.225 C 
ATOM      5  N1  OHN d          38.079  -0.728   7.523  0.00  0.00    -0.347 N 
ATOM      6  H19 OHN d          37.933  -0.215   6.666  0.00  0.00     0.163 HD
ATOM      7  O2  OHN d          38.591  -0.716   9.691  0.00  0.00    -0.273 OA
BRANCH   5   8
ATOM      8  C13 OHN d          37.907  -2.150   7.593  0.00  0.00     0.186 C 
ATOM      9  C14 OHN d          36.663  -2.682   6.885  0.00  0.00     0.062 C 
ATOM     10  C15 OHN d          37.057  -3.991   6.180  0.00  0.00     0.181 C 
ATOM     11  O4  OHN d          38.468  -3.944   6.068  0.00  0.00    -0.320 OA
ATOM     12  C16 OHN d          38.974  -2.889   6.880  0.00  0.00     0.281 C 
ATOM     13  O3  OHN d          40.146  -2.648   6.980  0.00  0.00    -0.263 OA
ENDBRANCH   5   8
ENDBRANCH   3   4
ENDBRANCH   1   3
BRANCH   1  14
ATOM     14  C9  OHN d          40.760   2.182   7.396  0.00  0.00     0.079 C 
BRANCH  14  15
ATOM     15  C8  OHN d          41.236   2.478   8.797  0.00  0.00     0.007 C 
BRANCH  15  16
ATOM     16  C7  OHN d          42.748   2.329   8.730  0.00  0.00     0.000 C 
BRANCH  16  17
ATOM     17  C6  OHN d          43.220   2.395   7.273  0.00  0.00     0.000 C 
BRANCH  17  18
ATOM     18  C5  OHN d          44.193   1.252   7.029  0.00  0.00     0.000 C 
BRANCH  18  19
ATOM     19  C4  OHN d          45.469   1.493   7.806  0.00  0.00     0.000 C 
BRANCH  19  20
ATOM     20  C3  OHN d          46.357   2.466   7.054  0.00  0.00    -0.000 C 
BRANCH  20  21
ATOM     21  C2  OHN d          47.721   1.849   6.849  0.00  0.00    -0.005 C 
ATOM     22  C1  OHN d          48.144   1.252   8.163  0.00  0.00     0.005 C 
ENDBRANCH  20  21
ENDBRANCH  19  20
ENDBRANCH  18  19
ENDBRANCH  17  18
ENDBRANCH  16  17
ENDBRANCH  15  16
ENDBRANCH  14  15
ENDBRANCH   1  14
TORSDOF 11
ENDMDL
MODEL 7
REMARK VINA RESULT:      -4.6      4.149      6.950
REMARK  11 active torsions:
REMARK  status: ('A' for Active; 'I' for Inactive)
REMARK    1  A    between atoms: C3_3  and  C2_2 
REMARK    2  A    between atoms: C4_4  and  C3_3 
REMARK    3  A    between atoms: C5_5  and  C4_4 
REMARK    4  A    between atoms: C6_6  and  C5_5 
REMARK    5  A    between atoms: C7_7  and  C6_6 
REMARK    6  A    between atoms: C8_8  and  C7_7 
REMARK    7  A    between atoms: C9_9  and  C8_8 
REMARK    8  A    between atoms: C10_10  and  C9_9 
REMARK    9  A    between atoms: C11_12  and  C10_10 
REMARK   10  A    between atoms: C11_12  and  C12_13 
REMARK       I    between atoms: C12_13  and  N1_15 
REMARK   11  A    between atoms: C13_16  and  N1_15 
ROOT
ATOM      1  C10 OHN d          44.218   1.353   7.817  0.00  0.00     0.135 C 
ATOM      2  O1  OHN d          44.263   1.022   6.645  0.00  0.00    -0.297 OA
ENDROOT
BRANCH   1   3
ATOM      3  C11 OHN d          44.085   0.346   8.910  0.00  0.00     0.181 C 
BRANCH   3   4
ATOM      4  C12 OHN d          42.632   0.100   9.225  0.00  0.00     0.225 C 
ATOM      5  N1  OHN d          41.780  -0.112   8.230  0.00  0.00    -0.347 N 
ATOM      6  H19 OHN d          42.073  -0.090   7.264  0.00  0.00     0.163 HD
ATOM      7  O2  OHN d          42.297   0.111  10.386  0.00  0.00    -0.273 OA
BRANCH   5   8
ATOM      8  C13 OHN d          40.421  -0.374   8.605  0.00  0.00     0.186 C 
ATOM      9  C14 OHN d          39.460   0.793   8.393  0.00  0.00     0.062 C 
ATOM     10  C15 OHN d          38.140   0.214   7.855  0.00  0.00     0.181 C 
ATOM     11  O4  OHN d          38.477  -1.060   7.337  0.00  0.00    -0.320 OA
ATOM     12  C16 OHN d          39.789  -1.415   7.764  0.00  0.00     0.281 C 
ATOM     13  O3  OHN d          40.307  -2.460   7.477  0.00  0.00    -0.263 OA
ENDBRANCH   5   8
ENDBRANCH   3   4
ENDBRANCH   1   3
BRANCH   1  14
ATOM     14  C9  OHN d          44.233   2.800   8.195  0.00  0.00     0.079 C 
BRANCH  14  15
ATOM     15  C8  OHN d          45.256   3.099   9.264  0.00  0.00     0.007 C 
BRANCH  15  16
ATOM     16  C7  OHN d          46.169   4.144   8.642  0.00  0.00     0.000 C 
BRANCH  16  17
ATOM     17  C6  OHN d          47.594   3.595   8.521  0.00  0.00     0.000 C 
BRANCH  17  18
ATOM     18  C5  OHN d          47.725   2.883   7.184  0.00  0.00     0.000 C 
BRANCH  18  19
ATOM     19  C4  OHN d          48.021   1.417   7.412  0.00  0.00     0.000 C 
BRANCH  19  20
ATOM     20  C3  OHN d          48.501   1.201   8.834  0.00  0.00    -0.000 C 
BRANCH  20  21
ATOM     21  C2  OHN d          47.739   0.053   9.456  0.00  0.00    -0.005 C 
ATOM     22  C1  OHN d          47.633   0.334  10.930  0.00  0.00     0.005 C 
ENDBRANCH  20  21
ENDBRANCH  19  20
ENDBRANCH  18  19
ENDBRANCH  17  18
ENDBRANCH  16  17
ENDBRANCH  15  16
ENDBRANCH  14  15
ENDBRANCH   1  14
TORSDOF 11
ENDMDL
MODEL 8
REMARK VINA RESULT:      -4.6      0.776      1.890
REMARK  11 active torsions:
REMARK  status: ('A' for Active; 'I' for Inactive)
REMARK    1  A    between atoms: C3_3  and  C2_2 
REMARK    2  A    between atoms: C4_4  and  C3_3 
REMARK    3  A    between atoms: C5_5  and  C4_4 
REMARK    4  A    between atoms: C6_6  and  C5_5 
REMARK    5  A    between atoms: C7_7  and  C6_6 
REMARK    6  A    between atoms: C8_8  and  C7_7 
REMARK    7  A    between atoms: C9_9  and  C8_8 
REMARK    8  A    between atoms: C10_10  and  C9_9 
REMARK    9  A    between atoms: C11_12  and  C10_10 
REMARK   10  A    between atoms: C11_12  and  C12_13 
REMARK       I    between atoms: C12_13  and  N1_15 
REMARK   11  A    between atoms: C13_16  and  N1_15 
ROOT
ATOM      1  C10 OHN d          39.333  -2.266   8.043  0.00  0.00     0.135 C 
ATOM      2  O1  OHN d          39.056  -3.269   8.678  0.00  0.00    -0.297 OA
ENDROOT
BRANCH   1   3
ATOM      3  C11 OHN d          38.773  -2.024   6.680  0.00  0.00     0.181 C 
BRANCH   3   4
ATOM      4  C12 OHN d          37.882  -3.167   6.268  0.00  0.00     0.225 C 
ATOM      5  N1  OHN d          38.429  -4.267   5.767  0.00  0.00    -0.347 N 
ATOM      6  H19 OHN d          39.426  -4.353   5.632  0.00  0.00     0.163 HD
ATOM      7  O2  OHN d          36.690  -3.031   6.407  0.00  0.00    -0.273 OA
BRANCH   5   8
ATOM      8  C13 OHN d          37.525  -5.328   5.429  0.00  0.00     0.186 C 
ATOM      9  C14 OHN d          37.783  -5.984   4.075  0.00  0.00     0.062 C 
ATOM     10  C15 OHN d          37.564  -7.497   4.246  0.00  0.00     0.181 C 
ATOM     11  O4  OHN d          37.674  -7.735   5.638  0.00  0.00    -0.320 OA
ATOM     12  C16 OHN d          37.649  -6.492   6.335  0.00  0.00     0.281 C 
ATOM     13  O3  OHN d          37.707  -6.416   7.532  0.00  0.00    -0.263 OA
ENDBRANCH   5   8
ENDBRANCH   3   4
ENDBRANCH   1   3
BRANCH   1  14
ATOM     14  C9  OHN d          40.300  -1.266   8.590  0.00  0.00     0.079 C 
BRANCH  14  15
ATOM     15  C8  OHN d          39.751  -0.540   9.794  0.00  0.00     0.007 C 
BRANCH  15  16
ATOM     16  C7  OHN d          38.901   0.580   9.215  0.00  0.00     0.000 C 
BRANCH  16  17
ATOM     17  C6  OHN d          39.619   1.924   9.378  0.00  0.00     0.000 C 
BRANCH  17  18
ATOM     18  C5  OHN d          39.808   2.541   8.001  0.00  0.00     0.000 C 
BRANCH  18  19
ATOM     19  C4  OHN d          41.167   2.163   7.454  0.00  0.00     0.000 C 
BRANCH  19  20
ATOM     20  C3  OHN d          42.205   2.227   8.558  0.00  0.00    -0.000 C 
BRANCH  20  21
ATOM     21  C2  OHN d          43.182   1.085   8.400  0.00  0.00    -0.005 C 
ATOM     22  C1  OHN d          43.850   1.251   7.063  0.00  0.00     0.005 C 
ENDBRANCH  20  21
ENDBRANCH  19  20
ENDBRANCH  18  19
ENDBRANCH  17  18
ENDBRANCH  16  17
ENDBRANCH  15  16
ENDBRANCH  14  15
ENDBRANCH   1  14
TORSDOF 11
ENDMDL
MODEL 9
REMARK VINA RESULT:      -4.6      5.242      7.883
REMARK  11 active torsions:
REMARK  status: ('A' for Active; 'I' for Inactive)
REMARK    1  A    between atoms: C3_3  and  C2_2 
REMARK    2  A    between atoms: C4_4  and  C3_3 
REMARK    3  A    between atoms: C5_5  and  C4_4 
REMARK    4  A    between atoms: C6_6  and  C5_5 
REMARK    5  A    between atoms: C7_7  and  C6_6 
REMARK    6  A    between atoms: C8_8  and  C7_7 
REMARK    7  A    between atoms: C9_9  and  C8_8 
REMARK    8  A    between atoms: C10_10  and  C9_9 
REMARK    9  A    between atoms: C11_12  and  C10_10 
REMARK   10  A    between atoms: C11_12  and  C12_13 
REMARK       I    between atoms: C12_13  and  N1_15 
REMARK   11  A    between atoms: C13_16  and  N1_15 
ROOT
ATOM      1  C10 OHN d          44.883   1.225   8.047  0.00  0.00     0.135 C 
ATOM      2  O1  OHN d          44.330   1.191   6.961  0.00  0.00    -0.297 OA
ENDROOT
BRANCH   1   3
ATOM      3  C11 OHN d          44.411   0.391   9.192  0.00  0.00     0.181 C 
BRANCH   3   4
ATOM      4  C12 OHN d          42.910   0.458   9.307  0.00  0.00     0.225 C 
ATOM      5  N1  OHN d          42.162  -0.010   8.317  0.00  0.00    -0.347 N 
ATOM      6  H19 OHN d          42.570  -0.389   7.474  0.00  0.00     0.163 HD
ATOM      7  O2  OHN d          42.443   0.947  10.309  0.00  0.00    -0.273 OA
BRANCH   5   8
ATOM      8  C13 OHN d          40.742   0.054   8.510  0.00  0.00     0.186 C 
ATOM      9  C14 OHN d          40.050   1.218   7.806  0.00  0.00     0.062 C 
ATOM     10  C15 OHN d          38.721   0.691   7.239  0.00  0.00     0.181 C 
ATOM     11  O4  OHN d          38.873  -0.715   7.177  0.00  0.00    -0.320 OA
ATOM     12  C16 OHN d          40.034  -1.099   7.909  0.00  0.00     0.281 C 
ATOM     13  O3  OHN d          40.379  -2.244   8.031  0.00  0.00    -0.263 OA
ENDBRANCH   5   8
ENDBRANCH   3   4
ENDBRANCH   1   3
BRANCH   1  14
ATOM     14  C9  OHN d          46.025   2.159   8.285  0.00  0.00     0.079 C 
BRANCH  14  15
ATOM     15  C8  OHN d          47.320   1.425   8.540  0.00  0.00     0.007 C 
BRANCH  15  16
ATOM     16  C7  OHN d          48.051   1.459   7.207  0.00  0.00     0.000 C 
BRANCH  16  17
ATOM     17  C6  OHN d          47.901   2.840   6.559  0.00  0.00     0.000 C 
BRANCH  17  18
ATOM     18  C5  OHN d          49.282   3.465   6.431  0.00  0.00     0.000 C 
BRANCH  18  19
ATOM     19  C4  OHN d          49.611   4.238   7.689  0.00  0.00     0.000 C 
BRANCH  19  20
ATOM     20  C3  OHN d          50.810   3.616   8.379  0.00  0.00    -0.000 C 
BRANCH  20  21
ATOM     21  C2  OHN d          50.468   3.326   9.823  0.00  0.00    -0.005 C 
ATOM     22  C1  OHN d          50.663   1.851  10.040  0.00  0.00     0.005 C 
ENDBRANCH  20  21
ENDBRANCH  19  20
ENDBRANCH  18  19
ENDBRANCH  17  18
ENDBRANCH  16  17
ENDBRANCH  15  16
ENDBRANCH  14  15
ENDBRANCH   1  14
TORSDOF 11
ENDMDL
MODEL 10
REMARK VINA RESULT:      -4.6      4.838      7.649
REMARK  11 active torsions:
REMARK  status: ('A' for Active; 'I' for Inactive)
REMARK    1  A    between atoms: C3_3  and  C2_2 
REMARK    2  A    between atoms: C4_4  and  C3_3 
REMARK    3  A    between atoms: C5_5  and  C4_4 
REMARK    4  A    between atoms: C6_6  and  C5_5 
REMARK    5  A    between atoms: C7_7  and  C6_6 
REMARK    6  A    between atoms: C8_8  and  C7_7 
REMARK    7  A    between atoms: C9_9  and  C8_8 
REMARK    8  A    between atoms: C10_10  and  C9_9 
REMARK    9  A    between atoms: C11_12  and  C10_10 
REMARK   10  A    between atoms: C11_12  and  C12_13 
REMARK       I    between atoms: C12_13  and  N1_15 
REMARK   11  A    between atoms: C13_16  and  N1_15 
ROOT
ATOM      1  C10 OHN d          44.875   2.071   7.441  0.00  0.00     0.135 C 
ATOM      2  O1  OHN d          44.406   0.947   7.389  0.00  0.00    -0.297 OA
ENDROOT
BRANCH   1   3
ATOM      3  C11 OHN d          44.130   3.202   8.068  0.00  0.00     0.181 C 
BRANCH   3   4
ATOM      4  C12 OHN d          42.764   2.749   8.511  0.00  0.00     0.225 C 
ATOM      5  N1  OHN d          41.928   2.238   7.617  0.00  0.00    -0.347 N 
ATOM      6  H19 OHN d          42.173   2.164   6.640  0.00  0.00     0.163 HD
ATOM      7  O2  OHN d          42.478   2.877   9.678  0.00  0.00    -0.273 OA
BRANCH   5   8
ATOM      8  C13 OHN d          40.658   1.795   8.115  0.00  0.00     0.186 C 
ATOM      9  C14 OHN d          39.460   2.177   7.249  0.00  0.00     0.062 C 
ATOM     10  C15 OHN d          38.499   0.976   7.234  0.00  0.00     0.181 C 
ATOM     11  O4  OHN d          39.287  -0.136   7.616  0.00  0.00    -0.320 OA
ATOM     12  C16 OHN d          40.535   0.320   8.130  0.00  0.00     0.281 C 
ATOM     13  O3  OHN d          41.381  -0.426   8.544  0.00  0.00    -0.263 OA
ENDBRANCH   5   8
ENDBRANCH   3   4
ENDBRANCH   1   3
BRANCH   1  14
ATOM     14  C9  OHN d          46.201   2.366   6.817  0.00  0.00     0.079 C 
BRANCH  14  15
ATOM     15  C8  OHN d          47.105   3.148   7.739  0.00  0.00     0.007 C 
BRANCH  15  16
ATOM     16  C7  OHN d          48.438   2.418   7.683  0.00  0.00     0.000 C 
BRANCH  16  17
ATOM     17  C6  OHN d          48.312   1.039   8.338  0.00  0.00     0.000 C 
BRANCH  17  18
ATOM     18  C5  OHN d          48.986   1.087   9.700  0.00  0.00     0.000 C 
BRANCH  18  19
ATOM     19  C4  OHN d          47.957   0.871  10.788  0.00  0.00     0.000 C 
BRANCH  19  20
ATOM     20  C3  OHN d          46.657   0.381  10.180  0.00  0.00    -0.000 C 
BRANCH  20  21
ATOM     21  C2  OHN d          45.492   1.042  10.878  0.00  0.00    -0.005 C 
ATOM     22  C1  OHN d          45.922   2.436  11.244  0.00  0.00     0.005 C 
ENDBRANCH  20  21
ENDBRANCH  19  20
ENDBRANCH  18  19
ENDBRANCH  17  18
ENDBRANCH  16  17
ENDBRANCH  15  16
ENDBRANCH  14  15
ENDBRANCH   1  14
TORSDOF 11
ENDMDL
MODEL 11
REMARK VINA RESULT:      -4.5      3.093      4.686
REMARK  11 active torsions:
REMARK  status: ('A' for Active; 'I' for Inactive)
REMARK    1  A    between atoms: C3_3  and  C2_2 
REMARK    2  A    between atoms: C4_4  and  C3_3 
REMARK    3  A    between atoms: C5_5  and  C4_4 
REMARK    4  A    between atoms: C6_6  and  C5_5 
REMARK    5  A    between atoms: C7_7  and  C6_6 
REMARK    6  A    between atoms: C8_8  and  C7_7 
REMARK    7  A    between atoms: C9_9  and  C8_8 
REMARK    8  A    between atoms: C10_10  and  C9_9 
REMARK    9  A    between atoms: C11_12  and  C10_10 
REMARK   10  A    between atoms: C11_12  and  C12_13 
REMARK       I    between atoms: C12_13  and  N1_15 
REMARK   11  A    between atoms: C13_16  and  N1_15 
ROOT
ATOM      1  C10 OHN d          42.955   0.089  10.563  0.00  0.00     0.135 C 
ATOM      2  O1  OHN d          42.032   0.331  11.322  0.00  0.00    -0.297 OA
ENDROOT
BRANCH   1   3
ATOM      3  C11 OHN d          42.977  -1.146   9.725  0.00  0.00     0.181 C 
BRANCH   3   4
ATOM      4  C12 OHN d          41.603  -1.762   9.662  0.00  0.00     0.225 C 
ATOM      5  N1  OHN d          40.644  -1.140   8.990  0.00  0.00    -0.347 N 
ATOM      6  H19 OHN d          40.800  -0.251   8.537  0.00  0.00     0.163 HD
ATOM      7  O2  OHN d          41.428  -2.809  10.239  0.00  0.00    -0.273 OA
BRANCH   5   8
ATOM      8  C13 OHN d          39.372  -1.801   8.942  0.00  0.00     0.186 C 
ATOM      9  C14 OHN d          38.174  -0.913   9.269  0.00  0.00     0.062 C 
ATOM     10  C15 OHN d          37.038  -1.296   8.305  0.00  0.00     0.181 C 
ATOM     11  O4  OHN d          37.672  -1.957   7.226  0.00  0.00    -0.320 OA
ATOM     12  C16 OHN d          39.019  -2.259   7.579  0.00  0.00     0.281 C 
ATOM     13  O3  OHN d          39.771  -2.838   6.843  0.00  0.00    -0.263 OA
ENDBRANCH   5   8
ENDBRANCH   3   4
ENDBRANCH   1   3
BRANCH   1  14
ATOM     14  C9  OHN d          44.135   1.004  10.493  0.00  0.00     0.079 C 
BRANCH  14  15
ATOM     15  C8  OHN d          45.152   0.547   9.476  0.00  0.00     0.007 C 
BRANCH  15  16
ATOM     16  C7  OHN d          45.228   1.684   8.469  0.00  0.00     0.000 C 
BRANCH  16  17
ATOM     17  C6  OHN d          44.352   1.370   7.252  0.00  0.00     0.000 C 
BRANCH  17  18
ATOM     18  C5  OHN d          43.288   2.450   7.131  0.00  0.00     0.000 C 
BRANCH  18  19
ATOM     19  C4  OHN d          41.936   1.878   7.498  0.00  0.00     0.000 C 
BRANCH  19  20
ATOM     20  C3  OHN d          41.299   2.717   8.589  0.00  0.00    -0.000 C 
BRANCH  20  21
ATOM     21  C2  OHN d          39.810   2.458   8.621  0.00  0.00    -0.005 C 
ATOM     22  C1  OHN d          39.383   2.134   7.216  0.00  0.00     0.005 C 
ENDBRANCH  20  21
ENDBRANCH  19  20
ENDBRANCH  18  19
ENDBRANCH  17  18
ENDBRANCH  16  17
ENDBRANCH  15  16
ENDBRANCH  14  15
ENDBRANCH   1  14
TORSDOF 11
ENDMDL
MODEL 12
REMARK VINA RESULT:      -4.5      4.684      7.218
REMARK  11 active torsions:
REMARK  status: ('A' for Active; 'I' for Inactive)
REMARK    1  A    between atoms: C3_3  and  C2_2 
REMARK    2  A    between atoms: C4_4  and  C3_3 
REMARK    3  A    between atoms: C5_5  and  C4_4 
REMARK    4  A    between atoms: C6_6  and  C5_5 
REMARK    5  A    between atoms: C7_7  and  C6_6 
REMARK    6  A    between atoms: C8_8  and  C7_7 
REMARK    7  A    between atoms: C9_9  and  C8_8 
REMARK    8  A    between atoms: C10_10  and  C9_9 
REMARK    9  A    between atoms: C11_12  and  C10_10 
REMARK   10  A    between atoms: C11_12  and  C12_13 
REMARK       I    between atoms: C12_13  and  N1_15 
REMARK   11  A    between atoms: C13_16  and  N1_15 
ROOT
ATOM      1  C10 OHN d          44.098   1.412   7.935  0.00  0.00     0.135 C 
ATOM      2  O1  OHN d          44.132   0.973   6.798  0.00  0.00    -0.297 OA
ENDROOT
BRANCH   1   3
ATOM      3  C11 OHN d          43.539   2.764   8.235  0.00  0.00     0.181 C 
BRANCH   3   4
ATOM      4  C12 OHN d          42.073   2.663   8.570  0.00  0.00     0.225 C 
ATOM      5  N1  OHN d          41.348   1.698   8.022  0.00  0.00    -0.347 N 
ATOM      6  H19 OHN d          41.744   1.040   7.366  0.00  0.00     0.163 HD
ATOM      7  O2  OHN d          41.612   3.480   9.331  0.00  0.00    -0.273 OA
BRANCH   5   8
ATOM      8  C13 OHN d          39.969   1.640   8.413  0.00  0.00     0.186 C 
ATOM      9  C14 OHN d          38.987   1.398   7.269  0.00  0.00     0.062 C 
ATOM     10  C15 OHN d          37.908   0.430   7.785  0.00  0.00     0.181 C 
ATOM     11  O4  OHN d          38.484  -0.205   8.911  0.00  0.00    -0.320 OA
ATOM     12  C16 OHN d          39.673   0.484   9.289  0.00  0.00     0.281 C 
ATOM     13  O3  OHN d          40.344   0.159  10.230  0.00  0.00    -0.263 OA
ENDBRANCH   5   8
ENDBRANCH   3   4
ENDBRANCH   1   3
BRANCH   1  14
ATOM     14  C9  OHN d          44.677   0.626   9.067  0.00  0.00     0.079 C 
BRANCH  14  15
ATOM     15  C8  OHN d          45.178   1.514  10.181  0.00  0.00     0.007 C 
BRANCH  15  16
ATOM     16  C7  OHN d          46.407   0.799  10.720  0.00  0.00     0.000 C 
BRANCH  16  17
ATOM     17  C6  OHN d          47.133   0.070   9.584  0.00  0.00     0.000 C 
BRANCH  17  18
ATOM     18  C5  OHN d          48.575   0.551   9.545  0.00  0.00     0.000 C 
BRANCH  18  19
ATOM     19  C4  OHN d          48.692   1.740   8.616  0.00  0.00     0.000 C 
BRANCH  19  20
ATOM     20  C3  OHN d          47.933   1.470   7.332  0.00  0.00    -0.000 C 
BRANCH  20  21
ATOM     21  C2  OHN d          47.303   2.752   6.838  0.00  0.00    -0.005 C 
ATOM     22  C1  OHN d          47.163   3.666   8.024  0.00  0.00     0.005 C 
ENDBRANCH  20  21
ENDBRANCH  19  20
ENDBRANCH  18  19
ENDBRANCH  17  18
ENDBRANCH  16  17
ENDBRANCH  15  16
ENDBRANCH  14  15
ENDBRANCH   1  14
TORSDOF 11
ENDMDL
MODEL 13
REMARK VINA RESULT:      -4.5      2.174      4.084
REMARK  11 active torsions:
REMARK  status: ('A' for Active; 'I' for Inactive)
REMARK    1  A    between atoms: C3_3  and  C2_2 
REMARK    2  A    between atoms: C4_4  and  C3_3 
REMARK    3  A    between atoms: C5_5  and  C4_4 
REMARK    4  A    between atoms: C6_6  and  C5_5 
REMARK    5  A    between atoms: C7_7  and  C6_6 
REMARK    6  A    between atoms: C8_8  and  C7_7 
REMARK    7  A    between atoms: C9_9  and  C8_8 
REMARK    8  A    between atoms: C10_10  and  C9_9 
REMARK    9  A    between atoms: C11_12  and  C10_10 
REMARK   10  A    between atoms: C11_12  and  C12_13 
REMARK       I    between atoms: C12_13  and  N1_15 
REMARK   11  A    between atoms: C13_16  and  N1_15 
ROOT
ATOM      1  C10 OHN d          39.221   1.731   7.381  0.00  0.00     0.135 C 
ATOM      2  O1  OHN d          38.597   1.775   6.335  0.00  0.00    -0.297 OA
ENDROOT
BRANCH   1   3
ATOM      3  C11 OHN d          38.579   1.294   8.656  0.00  0.00     0.181 C 
BRANCH   3   4
ATOM      4  C12 OHN d          38.336  -0.193   8.640  0.00  0.00     0.225 C 
ATOM      5  N1  OHN d          38.018  -0.785   7.496  0.00  0.00    -0.347 N 
ATOM      6  H19 OHN d          37.910  -0.264   6.638  0.00  0.00     0.163 HD
ATOM      7  O2  OHN d          38.436  -0.792   9.684  0.00  0.00    -0.273 OA
BRANCH   5   8
ATOM      8  C13 OHN d          37.835  -2.207   7.547  0.00  0.00     0.186 C 
ATOM      9  C14 OHN d          36.606  -2.723   6.804  0.00  0.00     0.062 C 
ATOM     10  C15 OHN d          37.009  -4.028   6.095  0.00  0.00     0.181 C 
ATOM     11  O4  OHN d          38.422  -3.988   6.018  0.00  0.00    -0.320 OA
ATOM     12  C16 OHN d          38.914  -2.945   6.854  0.00  0.00     0.281 C 
ATOM     13  O3  OHN d          40.086  -2.712   6.984  0.00  0.00    -0.263 OA
ENDBRANCH   5   8
ENDBRANCH   3   4
ENDBRANCH   1   3
BRANCH   1  14
ATOM     14  C9  OHN d          40.647   2.176   7.431  0.00  0.00     0.079 C 
BRANCH  14  15
ATOM     15  C8  OHN d          41.043   2.672   8.801  0.00  0.00     0.007 C 
BRANCH  15  16
ATOM     16  C7  OHN d          42.562   2.616   8.807  0.00  0.00     0.000 C 
BRANCH  16  17
ATOM     17  C6  OHN d          43.058   1.628   7.746  0.00  0.00     0.000 C 
BRANCH  17  18
ATOM     18  C5  OHN d          44.245   0.866   8.312  0.00  0.00     0.000 C 
BRANCH  18  19
ATOM     19  C4  OHN d          43.923   0.382   9.709  0.00  0.00     0.000 C 
BRANCH  19  20
ATOM     20  C3  OHN d          43.080  -0.876   9.638  0.00  0.00    -0.000 C 
BRANCH  20  21
ATOM     21  C2  OHN d          41.829  -0.693  10.467  0.00  0.00    -0.005 C 
ATOM     22  C1  OHN d          42.209   0.116  11.677  0.00  0.00     0.005 C 
ENDBRANCH  20  21
ENDBRANCH  19  20
ENDBRANCH  18  19
ENDBRANCH  17  18
ENDBRANCH  16  17
ENDBRANCH  15  16
ENDBRANCH  14  15
ENDBRANCH   1  14
TORSDOF 11
ENDMDL
MODEL 14
REMARK VINA RESULT:      -4.5      2.853      8.659
REMARK  11 active torsions:
REMARK  status: ('A' for Active; 'I' for Inactive)
REMARK    1  A    between atoms: C3_3  and  C2_2 
REMARK    2  A    between atoms: C4_4  and  C3_3 
REMARK    3  A    between atoms: C5_5  and  C4_4 
REMARK    4  A    between atoms: C6_6  and  C5_5 
REMARK    5  A    between atoms: C7_7  and  C6_6 
REMARK    6  A    between atoms: C8_8  and  C7_7 
REMARK    7  A    between atoms: C9_9  and  C8_8 
REMARK    8  A    between atoms: C10_10  and  C9_9 
REMARK    9  A    between atoms: C11_12  and  C10_10 
REMARK   10  A    between atoms: C11_12  and  C12_13 
REMARK       I    between atoms: C12_13  and  N1_15 
REMARK   11  A    between atoms: C13_16  and  N1_15 
ROOT
ATOM      1  C10 OHN d          39.396  -2.051   7.363  0.00  0.00     0.135 C 
ATOM      2  O1  OHN d          38.995  -0.939   7.069  0.00  0.00    -0.297 OA
ENDROOT
BRANCH   1   3
ATOM      3  C11 OHN d          40.233  -2.286   8.577  0.00  0.00     0.181 C 
BRANCH   3   4
ATOM      4  C12 OHN d          40.968  -1.028   8.959  0.00  0.00     0.225 C 
ATOM      5  N1  OHN d          41.785  -0.461   8.080  0.00  0.00    -0.347 N 
ATOM      6  H19 OHN d          41.947  -0.863   7.168  0.00  0.00     0.163 HD
ATOM      7  O2  OHN d          40.785  -0.583  10.067  0.00  0.00    -0.273 OA
BRANCH   5   8
ATOM      8  C13 OHN d          42.424   0.753   8.499  0.00  0.00     0.186 C 
ATOM      9  C14 OHN d          43.946   0.751   8.380  0.00  0.00     0.062 C 
ATOM     10  C15 OHN d          44.371   2.140   7.872  0.00  0.00     0.181 C 
ATOM     11  O4  OHN d          43.208   2.693   7.283  0.00  0.00    -0.320 OA
ATOM     12  C16 OHN d          42.075   1.906   7.638  0.00  0.00     0.281 C 
ATOM     13  O3  OHN d          40.959   2.172   7.283  0.00  0.00    -0.263 OA
ENDBRANCH   5   8
ENDBRANCH   3   4
ENDBRANCH   1   3
BRANCH   1  14
ATOM     14  C9  OHN d          39.110  -3.218   6.474  0.00  0.00     0.079 C 
BRANCH  14  15
ATOM     15  C8  OHN d          37.629  -3.475   6.327  0.00  0.00     0.007 C 
BRANCH  15  16
ATOM     16  C7  OHN d          37.510  -4.985   6.199  0.00  0.00     0.000 C 
BRANCH  16  17
ATOM     17  C6  OHN d          36.686  -5.346   4.959  0.00  0.00     0.000 C 
BRANCH  17  18
ATOM     18  C5  OHN d          37.605  -6.008   3.944  0.00  0.00     0.000 C 
BRANCH  18  19
ATOM     19  C4  OHN d          37.455  -7.512   4.024  0.00  0.00     0.000 C 
BRANCH  19  20
ATOM     20  C3  OHN d          38.791  -8.147   4.359  0.00  0.00    -0.000 C 
BRANCH  20  21
ATOM     21  C2  OHN d          39.186  -9.102   3.256  0.00  0.00    -0.005 C 
ATOM     22  C1  OHN d          37.926  -9.510   2.544  0.00  0.00     0.005 C 
ENDBRANCH  20  21
ENDBRANCH  19  20
ENDBRANCH  18  19
ENDBRANCH  17  18
ENDBRANCH  16  17
ENDBRANCH  15  16
ENDBRANCH  14  15
ENDBRANCH   1  14
TORSDOF 11
ENDMDL
MODEL 15
REMARK VINA RESULT:      -4.5      1.252      1.910
REMARK  11 active torsions:
REMARK  status: ('A' for Active; 'I' for Inactive)
REMARK    1  A    between atoms: C3_3  and  C2_2 
REMARK    2  A    between atoms: C4_4  and  C3_3 
REMARK    3  A    between atoms: C5_5  and  C4_4 
REMARK    4  A    between atoms: C6_6  and  C5_5 
REMARK    5  A    between atoms: C7_7  and  C6_6 
REMARK    6  A    between atoms: C8_8  and  C7_7 
REMARK    7  A    between atoms: C9_9  and  C8_8 
REMARK    8  A    between atoms: C10_10  and  C9_9 
REMARK    9  A    between atoms: C11_12  and  C10_10 
REMARK   10  A    between atoms: C11_12  and  C12_13 
REMARK       I    between atoms: C12_13  and  N1_15 
REMARK   11  A    between atoms: C13_16  and  N1_15 
ROOT
ATOM      1  C10 OHN d          38.959  -2.301   8.285  0.00  0.00     0.135 C 
ATOM      2  O1  OHN d          38.956  -3.413   8.784  0.00  0.00    -0.297 OA
ENDROOT
BRANCH   1   3
ATOM      3  C11 OHN d          38.669  -2.094   6.835  0.00  0.00     0.181 C 
BRANCH   3   4
ATOM      4  C12 OHN d          37.808  -3.211   6.306  0.00  0.00     0.225 C 
ATOM      5  N1  OHN d          38.386  -4.312   5.846  0.00  0.00    -0.347 N 
ATOM      6  H19 OHN d          39.390  -4.415   5.817  0.00  0.00     0.163 HD
ATOM      7  O2  OHN d          36.610  -3.054   6.319  0.00  0.00    -0.273 OA
BRANCH   5   8
ATOM      8  C13 OHN d          37.505  -5.349   5.391  0.00  0.00     0.186 C 
ATOM      9  C14 OHN d          37.802  -5.875   3.989  0.00  0.00     0.062 C 
ATOM     10  C15 OHN d          37.601  -7.400   4.015  0.00  0.00     0.181 C 
ATOM     11  O4  OHN d          37.684  -7.763   5.381  0.00  0.00    -0.320 OA
ATOM     12  C16 OHN d          37.625  -6.590   6.189  0.00  0.00     0.281 C 
ATOM     13  O3  OHN d          37.656  -6.623   7.389  0.00  0.00    -0.263 OA
ENDBRANCH   5   8
ENDBRANCH   3   4
ENDBRANCH   1   3
BRANCH   1  14
ATOM     14  C9  OHN d          39.317  -1.105   9.106  0.00  0.00     0.079 C 
BRANCH  14  15
ATOM     15  C8  OHN d          38.297  -0.827  10.184  0.00  0.00     0.007 C 
BRANCH  15  16
ATOM     16  C7  OHN d          37.790   0.575   9.883  0.00  0.00     0.000 C 
BRANCH  16  17
ATOM     17  C6  OHN d          38.105   1.512  11.053  0.00  0.00     0.000 C 
BRANCH  17  18
ATOM     18  C5  OHN d          38.723   2.786  10.498  0.00  0.00     0.000 C 
BRANCH  18  19
ATOM     19  C4  OHN d          40.109   2.493   9.969  0.00  0.00     0.000 C 
BRANCH  19  20
ATOM     20  C3  OHN d          40.276   3.105   8.591  0.00  0.00    -0.000 C 
BRANCH  20  21
ATOM     21  C2  OHN d          40.404   2.005   7.562  0.00  0.00    -0.005 C 
ATOM     22  C1  OHN d          39.138   2.005   6.749  0.00  0.00     0.005 C 
ENDBRANCH  20  21
ENDBRANCH  19  20
ENDBRANCH  18  19
ENDBRANCH  17  18
ENDBRANCH  16  17
ENDBRANCH  15  16
ENDBRANCH  14  15
ENDBRANCH   1  14
TORSDOF 11
ENDMDL
MODEL 16
REMARK VINA RESULT:      -4.5      5.547      9.149
REMARK  11 active torsions:
REMARK  status: ('A' for Active; 'I' for Inactive)
REMARK    1  A    between atoms: C3_3  and  C2_2 
REMARK    2  A    between atoms: C4_4  and  C3_3 
REMARK    3  A    between atoms: C5_5  and  C4_4 
REMARK    4  A    between atoms: C6_6  and  C5_5 
REMARK    5  A    between atoms: C7_7  and  C6_6 
REMARK    6  A    between atoms: C8_8  and  C7_7 
REMARK    7  A    between atoms: C9_9  and  C8_8 
REMARK    8  A    between atoms: C10_10  and  C9_9 
REMARK    9  A    between atoms: C11_12  and  C10_10 
REMARK   10  A    between atoms: C11_12  and  C12_13 
REMARK       I    between atoms: C12_13  and  N1_15 
REMARK   11  A    between atoms: C13_16  and  N1_15 
ROOT
ATOM      1  C10 OHN d          42.477   2.233   7.874  0.00  0.00     0.135 C 
ATOM      2  O1  OHN d          42.934   3.145   8.540  0.00  0.00    -0.297 OA
ENDROOT
BRANCH   1   3
ATOM      3  C11 OHN d          43.335   1.115   7.384  0.00  0.00     0.181 C 
BRANCH   3   4
ATOM      4  C12 OHN d          44.746   1.276   7.887  0.00  0.00     0.225 C 
ATOM      5  N1  OHN d          45.570   2.100   7.254  0.00  0.00    -0.347 N 
ATOM      6  H19 OHN d          45.287   2.607   6.428  0.00  0.00     0.163 HD
ATOM      7  O2  OHN d          45.075   0.635   8.858  0.00  0.00    -0.273 OA
BRANCH   5   8
ATOM      8  C13 OHN d          46.886   2.231   7.809  0.00  0.00     0.186 C 
ATOM      9  C14 OHN d          48.021   2.190   6.788  0.00  0.00     0.062 C 
ATOM     10  C15 OHN d          49.063   3.239   7.213  0.00  0.00     0.181 C 
ATOM     11  O4  OHN d          48.370   4.126   8.072  0.00  0.00    -0.320 OA
ATOM     12  C16 OHN d          47.114   3.557   8.429  0.00  0.00     0.281 C 
ATOM     13  O3  OHN d          46.338   4.100   9.168  0.00  0.00    -0.263 OA
ENDBRANCH   5   8
ENDBRANCH   3   4
ENDBRANCH   1   3
BRANCH   1  14
ATOM     14  C9  OHN d          41.037   2.238   7.472  0.00  0.00     0.079 C 
BRANCH  14  15
ATOM     15  C8  OHN d          40.136   2.723   8.582  0.00  0.00     0.007 C 
BRANCH  15  16
ATOM     16  C7  OHN d          39.020   1.692   8.652  0.00  0.00     0.000 C 
BRANCH  16  17
ATOM     17  C6  OHN d          39.088   0.759   7.438  0.00  0.00     0.000 C 
BRANCH  17  18
ATOM     18  C5  OHN d          38.843  -0.665   7.910  0.00  0.00     0.000 C 
BRANCH  18  19
ATOM     19  C4  OHN d          40.130  -1.457   7.835  0.00  0.00     0.000 C 
BRANCH  19  20
ATOM     20  C3  OHN d          40.535  -1.918   9.222  0.00  0.00    -0.000 C 
BRANCH  20  21
ATOM     21  C2  OHN d          41.894  -1.352   9.566  0.00  0.00    -0.005 C 
ATOM     22  C1  OHN d          41.676  -0.233  10.547  0.00  0.00     0.005 C 
ENDBRANCH  20  21
ENDBRANCH  19  20
ENDBRANCH  18  19
ENDBRANCH  17  18
ENDBRANCH  16  17
ENDBRANCH  15  16
ENDBRANCH  14  15
ENDBRANCH   1  14
TORSDOF 11
ENDMDL
MODEL 17
REMARK VINA RESULT:      -4.5      4.225      6.705
REMARK  11 active torsions:
REMARK  status: ('A' for Active; 'I' for Inactive)
REMARK    1  A    between atoms: C3_3  and  C2_2 
REMARK    2  A    between atoms: C4_4  and  C3_3 
REMARK    3  A    between atoms: C5_5  and  C4_4 
REMARK    4  A    between atoms: C6_6  and  C5_5 
REMARK    5  A    between atoms: C7_7  and  C6_6 
REMARK    6  A    between atoms: C8_8  and  C7_7 
REMARK    7  A    between atoms: C9_9  and  C8_8 
REMARK    8  A    between atoms: C10_10  and  C9_9 
REMARK    9  A    between atoms: C11_12  and  C10_10 
REMARK   10  A    between atoms: C11_12  and  C12_13 
REMARK       I    between atoms: C12_13  and  N1_15 
REMARK   11  A    between atoms: C13_16  and  N1_15 
ROOT
ATOM      1  C10 OHN d          42.068   1.886   7.900  0.00  0.00     0.135 C 
ATOM      2  O1  OHN d          40.917   1.904   7.500  0.00  0.00    -0.297 OA
ENDROOT
BRANCH   1   3
ATOM      3  C11 OHN d          42.413   1.401   9.269  0.00  0.00     0.181 C 
BRANCH   3   4
ATOM      4  C12 OHN d          42.179  -0.084   9.376  0.00  0.00     0.225 C 
ATOM      5  N1  OHN d          40.942  -0.554   9.283  0.00  0.00    -0.347 N 
ATOM      6  H19 OHN d          40.147   0.058   9.168  0.00  0.00     0.163 HD
ATOM      7  O2  OHN d          43.140  -0.795   9.548  0.00  0.00    -0.273 OA
BRANCH   5   8
ATOM      8  C13 OHN d          40.797  -1.979   9.357  0.00  0.00     0.186 C 
ATOM      9  C14 OHN d          40.116  -2.490  10.624  0.00  0.00     0.062 C 
ATOM     10  C15 OHN d          39.181  -3.641  10.214  0.00  0.00     0.181 C 
ATOM     11  O4  OHN d          38.965  -3.468   8.825  0.00  0.00    -0.320 OA
ATOM     12  C16 OHN d          39.893  -2.514   8.315  0.00  0.00     0.281 C 
ATOM     13  O3  OHN d          39.934  -2.201   7.156  0.00  0.00    -0.263 OA
ENDBRANCH   5   8
ENDBRANCH   3   4
ENDBRANCH   1   3
BRANCH   1  14
ATOM     14  C9  OHN d          43.175   2.410   7.044  0.00  0.00     0.079 C 
BRANCH  14  15
ATOM     15  C8  OHN d          44.252   1.379   6.807  0.00  0.00     0.007 C 
BRANCH  15  16
ATOM     16  C7  OHN d          45.552   2.097   7.133  0.00  0.00     0.000 C 
BRANCH  16  17
ATOM     17  C6  OHN d          46.281   1.376   8.272  0.00  0.00     0.000 C 
BRANCH  17  18
ATOM     18  C5  OHN d          47.779   1.517   8.052  0.00  0.00     0.000 C 
BRANCH  18  19
ATOM     19  C4  OHN d          48.044   2.046   6.660  0.00  0.00     0.000 C 
BRANCH  19  20
ATOM     20  C3  OHN d          49.008   3.215   6.726  0.00  0.00    -0.000 C 
BRANCH  20  21
ATOM     21  C2  OHN d          49.287   3.559   8.171  0.00  0.00    -0.005 C 
ATOM     22  C1  OHN d          50.775   3.720   8.313  0.00  0.00     0.005 C 
ENDBRANCH  20  21
ENDBRANCH  19  20
ENDBRANCH  18  19
ENDBRANCH  17  18
ENDBRANCH  16  17
ENDBRANCH  15  16
ENDBRANCH  14  15
ENDBRANCH   1  14
TORSDOF 11
ENDMDL
MODEL 18
REMARK VINA RESULT:      -4.5      4.368      6.787
REMARK  11 active torsions:
REMARK  status: ('A' for Active; 'I' for Inactive)
REMARK    1  A    between atoms: C3_3  and  C2_2 
REMARK    2  A    between atoms: C4_4  and  C3_3 
REMARK    3  A    between atoms: C5_5  and  C4_4 
REMARK    4  A    between atoms: C6_6  and  C5_5 
REMARK    5  A    between atoms: C7_7  and  C6_6 
REMARK    6  A    between atoms: C8_8  and  C7_7 
REMARK    7  A    between atoms: C9_9  and  C8_8 
REMARK    8  A    between atoms: C10_10  and  C9_9 
REMARK    9  A    between atoms: C11_12  and  C10_10 
REMARK   10  A    between atoms: C11_12  and  C12_13 
REMARK       I    between atoms: C12_13  and  N1_15 
REMARK   11  A    between atoms: C13_16  and  N1_15 
ROOT
ATOM      1  C10 OHN d          44.368   0.981   9.426  0.00  0.00     0.135 C 
ATOM      2  O1  OHN d          43.673   1.457  10.306  0.00  0.00    -0.297 OA
ENDROOT
BRANCH   1   3
ATOM      3  C11 OHN d          43.951   1.019   7.993  0.00  0.00     0.181 C 
BRANCH   3   4
ATOM      4  C12 OHN d          42.450   0.950   7.881  0.00  0.00     0.225 C 
ATOM      5  N1  OHN d          41.818  -0.144   8.286  0.00  0.00    -0.347 N 
ATOM      6  H19 OHN d          42.317  -0.945   8.646  0.00  0.00     0.163 HD
ATOM      7  O2  OHN d          41.875   1.906   7.416  0.00  0.00    -0.273 OA
BRANCH   5   8
ATOM      8  C13 OHN d          40.388  -0.125   8.183  0.00  0.00     0.186 C 
ATOM      9  C14 OHN d          39.765  -1.417   7.658  0.00  0.00     0.062 C 
ATOM     10  C15 OHN d          38.484  -1.675   8.469  0.00  0.00     0.181 C 
ATOM     11  O4  OHN d          38.631  -0.910   9.652  0.00  0.00    -0.320 OA
ATOM     12  C16 OHN d          39.724  -0.008   9.501  0.00  0.00     0.281 C 
ATOM     13  O3  OHN d          40.049   0.771  10.356  0.00  0.00    -0.263 OA
ENDBRANCH   5   8
ENDBRANCH   3   4
ENDBRANCH   1   3
BRANCH   1  14
ATOM     14  C9  OHN d          45.646   0.283   9.765  0.00  0.00     0.079 C 
BRANCH  14  15
ATOM     15  C8  OHN d          46.444   1.028  10.807  0.00  0.00     0.007 C 
BRANCH  15  16
ATOM     16  C7  OHN d          47.869   0.525  10.635  0.00  0.00     0.000 C 
BRANCH  16  17
ATOM     17  C6  OHN d          48.175   0.310   9.149  0.00  0.00     0.000 C 
BRANCH  17  18
ATOM     18  C5  OHN d          48.696   1.616   8.569  0.00  0.00     0.000 C 
BRANCH  18  19
ATOM     19  C4  OHN d          48.095   1.844   7.200  0.00  0.00     0.000 C 
BRANCH  19  20
ATOM     20  C3  OHN d          46.990   2.879   7.285  0.00  0.00    -0.000 C 
BRANCH  20  21
ATOM     21  C2  OHN d          47.264   3.816   8.439  0.00  0.00    -0.005 C 
ATOM     22  C1  OHN d          45.933   4.289   8.956  0.00  0.00     0.005 C 
ENDBRANCH  20  21
ENDBRANCH  19  20
ENDBRANCH  18  19
ENDBRANCH  17  18
ENDBRANCH  16  17
ENDBRANCH  15  16
ENDBRANCH  14  15
ENDBRANCH   1  14
TORSDOF 11
ENDMDL
MODEL 19
REMARK VINA RESULT:      -4.5      3.846      6.184
REMARK  11 active torsions:
REMARK  status: ('A' for Active; 'I' for Inactive)
REMARK    1  A    between atoms: C3_3  and  C2_2 
REMARK    2  A    between atoms: C4_4  and  C3_3 
REMARK    3  A    between atoms: C5_5  and  C4_4 
REMARK    4  A    between atoms: C6_6  and  C5_5 
REMARK    5  A    between atoms: C7_7  and  C6_6 
REMARK    6  A    between atoms: C8_8  and  C7_7 
REMARK    7  A    between atoms: C9_9  and  C8_8 
REMARK    8  A    between atoms: C10_10  and  C9_9 
REMARK    9  A    between atoms: C11_12  and  C10_10 
REMARK   10  A    between atoms: C11_12  and  C12_13 
REMARK       I    between atoms: C12_13  and  N1_15 
REMARK   11  A    between atoms: C13_16  and  N1_15 
ROOT
ATOM      1  C10 OHN d          43.501   0.652   8.728  0.00  0.00     0.135 C 
ATOM      2  O1  OHN d          43.763  -0.295   9.449  0.00  0.00    -0.297 OA
ENDROOT
BRANCH   1   3
ATOM      3  C11 OHN d          42.262   1.463   8.920  0.00  0.00     0.181 C 
BRANCH   3   4
ATOM      4  C12 OHN d          41.089   0.797   8.248  0.00  0.00     0.225 C 
ATOM      5  N1  OHN d          40.828  -0.476   8.513  0.00  0.00    -0.347 N 
ATOM      6  H19 OHN d          41.408  -1.022   9.134  0.00  0.00     0.163 HD
ATOM      7  O2  OHN d          40.428   1.458   7.483  0.00  0.00    -0.273 OA
BRANCH   5   8
ATOM      8  C13 OHN d          39.676  -1.035   7.866  0.00  0.00     0.186 C 
ATOM      9  C14 OHN d          39.880  -2.431   7.283  0.00  0.00     0.062 C 
ATOM     10  C15 OHN d          38.602  -3.240   7.561  0.00  0.00     0.181 C 
ATOM     11  O4  OHN d          37.954  -2.559   8.621  0.00  0.00    -0.320 OA
ATOM     12  C16 OHN d          38.560  -1.283   8.807  0.00  0.00     0.281 C 
ATOM     13  O3  OHN d          38.182  -0.497   9.633  0.00  0.00    -0.263 OA
ENDBRANCH   5   8
ENDBRANCH   3   4
ENDBRANCH   1   3
BRANCH   1  14
ATOM     14  C9  OHN d          44.392   0.996   7.578  0.00  0.00     0.079 C 
BRANCH  14  15
ATOM     15  C8  OHN d          44.539   2.488   7.396  0.00  0.00     0.007 C 
BRANCH  15  16
ATOM     16  C7  OHN d          45.947   2.799   7.877  0.00  0.00     0.000 C 
BRANCH  16  17
ATOM     17  C6  OHN d          46.933   2.719   6.707  0.00  0.00     0.000 C 
BRANCH  17  18
ATOM     18  C5  OHN d          48.021   1.716   7.059  0.00  0.00     0.000 C 
BRANCH  18  19
ATOM     19  C4  OHN d          48.255   1.721   8.554  0.00  0.00     0.000 C 
BRANCH  19  20
ATOM     20  C3  OHN d          48.472   0.303   9.048  0.00  0.00    -0.000 C 
BRANCH  20  21
ATOM     21  C2  OHN d          47.251  -0.157   9.812  0.00  0.00    -0.005 C 
ATOM     22  C1  OHN d          46.967   0.877  10.866  0.00  0.00     0.005 C 
ENDBRANCH  20  21
ENDBRANCH  19  20
ENDBRANCH  18  19
ENDBRANCH  17  18
ENDBRANCH  16  17
ENDBRANCH  15  16
ENDBRANCH  14  15
ENDBRANCH   1  14
TORSDOF 11
ENDMDL
