MODEL 1
REMARK VINA RESULT:      -5.0      0.000      0.000
REMARK  11 active torsions:
REMARK  status: ('A' for Active; 'I' for Inactive)
REMARK    1  A    between atoms: C3_3  and  C2_2 
REMARK    2  A    between atoms: C4_4  and  C3_3 
REMARK    3  A    between atoms: C5_5  and  C4_4 
REMARK    4  A    between atoms: C6_6  and  C5_5 
REMARK    5  A    between atoms: C7_7  and  C6_6 
REMARK    6  A    between atoms: C8_8  and  C7_7 
REMARK    7  A    between atoms: C9_9  and  C8_8 
REMARK    8  A    between atoms: C10_10  and  C9_9 
REMARK    9  A    between atoms: C11_12  and  C10_10 
REMARK   10  A    between atoms: C11_12  and  C12_13 
REMARK       I    between atoms: C12_13  and  N1_15 
REMARK   11  A    between atoms: C13_16  and  N1_15 
ROOT
ATOM      1  C10 OHN d          39.522  21.006  10.084  0.00  0.00     0.135 C 
ATOM      2  O1  OHN d          39.647  21.436   8.951  0.00  0.00    -0.297 OA
ENDROOT
BRANCH   1   3
ATOM      3  C11 OHN d          40.642  20.311  10.785  0.00  0.00     0.181 C 
BRANCH   3   4
ATOM      4  C12 OHN d          41.692  21.304  11.211  0.00  0.00     0.225 C 
ATOM      5  N1  OHN d          41.629  22.549  10.758  0.00  0.00    -0.347 N 
ATOM      6  H19 OHN d          40.909  22.847  10.115  0.00  0.00     0.163 HD
ATOM      7  O2  OHN d          42.564  20.918  11.953  0.00  0.00    -0.273 OA
BRANCH   5   8
ATOM      8  C13 OHN d          42.641  23.448  11.232  0.00  0.00     0.186 C 
ATOM      9  C14 OHN d          43.400  24.195  10.137  0.00  0.00     0.062 C 
ATOM     10  C15 OHN d          43.613  25.638  10.625  0.00  0.00     0.181 C 
ATOM     11  O4  OHN d          42.648  25.834  11.642  0.00  0.00    -0.320 OA
ATOM     12  C16 OHN d          42.081  24.579  12.006  0.00  0.00     0.281 C 
ATOM     13  O3  OHN d          41.248  24.464  12.865  0.00  0.00    -0.263 OA
ENDBRANCH   5   8
ENDBRANCH   3   4
ENDBRANCH   1   3
BRANCH   1  14
ATOM     14  C9  OHN d          38.210  21.111  10.792  0.00  0.00     0.079 C 
BRANCH  14  15
ATOM     15  C8  OHN d          37.889  22.530  11.195  0.00  0.00     0.007 C 
BRANCH  15  16
ATOM     16  C7  OHN d          36.669  22.900  10.365  0.00  0.00     0.000 C 
BRANCH  16  17
ATOM     17  C6  OHN d          35.841  23.965  11.092  0.00  0.00     0.000 C 
BRANCH  17  18
ATOM     18  C5  OHN d          35.105  24.796  10.052  0.00  0.00     0.000 C 
BRANCH  18  19
ATOM     19  C4  OHN d          35.666  26.201  10.031  0.00  0.00     0.000 C 
BRANCH  19  20
ATOM     20  C3  OHN d          36.285  26.531  11.375  0.00  0.00    -0.000 C 
BRANCH  20  21
ATOM     21  C2  OHN d          37.609  27.230  11.163  0.00  0.00    -0.005 C 
ATOM     22  C1  OHN d          38.580  26.658  12.158  0.00  0.00     0.005 C 
ENDBRANCH  20  21
ENDBRANCH  19  20
ENDBRANCH  18  19
ENDBRANCH  17  18
ENDBRANCH  16  17
ENDBRANCH  15  16
ENDBRANCH  14  15
ENDBRANCH   1  14
TORSDOF 11
ENDMDL
MODEL 2
REMARK VINA RESULT:      -5.0      2.683      4.280
REMARK  11 active torsions:
REMARK  status: ('A' for Active; 'I' for Inactive)
REMARK    1  A    between atoms: C3_3  and  C2_2 
REMARK    2  A    between atoms: C4_4  and  C3_3 
REMARK    3  A    between atoms: C5_5  and  C4_4 
REMARK    4  A    between atoms: C6_6  and  C5_5 
REMARK    5  A    between atoms: C7_7  and  C6_6 
REMARK    6  A    between atoms: C8_8  and  C7_7 
REMARK    7  A    between atoms: C9_9  and  C8_8 
REMARK    8  A    between atoms: C10_10  and  C9_9 
REMARK    9  A    between atoms: C11_12  and  C10_10 
REMARK   10  A    between atoms: C11_12  and  C12_13 
REMARK       I    between atoms: C12_13  and  N1_15 
REMARK   11  A    between atoms: C13_16  and  N1_15 
ROOT
ATOM      1  C10 OHN d          37.861  21.441  10.980  0.00  0.00     0.135 C 
ATOM      2  O1  OHN d          37.458  20.591  11.755  0.00  0.00    -0.297 OA
ENDROOT
BRANCH   1   3
ATOM      3  C11 OHN d          39.198  21.333  10.326  0.00  0.00     0.181 C 
BRANCH   3   4
ATOM      4  C12 OHN d          40.191  20.693  11.261  0.00  0.00     0.225 C 
ATOM      5  N1  OHN d          40.251  19.370  11.336  0.00  0.00    -0.347 N 
ATOM      6  H19 OHN d          39.633  18.777  10.802  0.00  0.00     0.163 HD
ATOM      7  O2  OHN d          40.898  21.421  11.916  0.00  0.00    -0.273 OA
BRANCH   5   8
ATOM      8  C13 OHN d          41.243  18.829  12.220  0.00  0.00     0.186 C 
ATOM      9  C14 OHN d          40.818  17.568  12.968  0.00  0.00     0.062 C 
ATOM     10  C15 OHN d          42.029  16.621  13.002  0.00  0.00     0.181 C 
ATOM     11  O4  OHN d          42.879  17.064  11.960  0.00  0.00    -0.320 OA
ATOM     12  C16 OHN d          42.440  18.340  11.500  0.00  0.00     0.281 C 
ATOM     13  O3  OHN d          43.004  18.948  10.631  0.00  0.00    -0.263 OA
ENDBRANCH   5   8
ENDBRANCH   3   4
ENDBRANCH   1   3
BRANCH   1  14
ATOM     14  C9  OHN d          37.044  22.662  10.705  0.00  0.00     0.079 C 
BRANCH  14  15
ATOM     15  C8  OHN d          36.331  23.162  11.939  0.00  0.00     0.007 C 
BRANCH  15  16
ATOM     16  C7  OHN d          35.143  23.948  11.406  0.00  0.00     0.000 C 
BRANCH  16  17
ATOM     17  C6  OHN d          35.342  24.261   9.919  0.00  0.00     0.000 C 
BRANCH  17  18
ATOM     18  C5  OHN d          35.188  25.760   9.716  0.00  0.00     0.000 C 
BRANCH  18  19
ATOM     19  C4  OHN d          35.664  26.494  10.950  0.00  0.00     0.000 C 
BRANCH  19  20
ATOM     20  C3  OHN d          37.067  27.025  10.727  0.00  0.00    -0.000 C 
BRANCH  20  21
ATOM     21  C2  OHN d          37.933  26.677  11.916  0.00  0.00    -0.005 C 
ATOM     22  C1  OHN d          38.987  27.744  12.028  0.00  0.00     0.005 C 
ENDBRANCH  20  21
ENDBRANCH  19  20
ENDBRANCH  18  19
ENDBRANCH  17  18
ENDBRANCH  16  17
ENDBRANCH  15  16
ENDBRANCH  14  15
ENDBRANCH   1  14
TORSDOF 11
ENDMDL
MODEL 3
REMARK VINA RESULT:      -4.9      2.259      4.150
REMARK  11 active torsions:
REMARK  status: ('A' for Active; 'I' for Inactive)
REMARK    1  A    between atoms: C3_3  and  C2_2 
REMARK    2  A    between atoms: C4_4  and  C3_3 
REMARK    3  A    between atoms: C5_5  and  C4_4 
REMARK    4  A    between atoms: C6_6  and  C5_5 
REMARK    5  A    between atoms: C7_7  and  C6_6 
REMARK    6  A    between atoms: C8_8  and  C7_7 
REMARK    7  A    between atoms: C9_9  and  C8_8 
REMARK    8  A    between atoms: C10_10  and  C9_9 
REMARK    9  A    between atoms: C11_12  and  C10_10 
REMARK   10  A    between atoms: C11_12  and  C12_13 
REMARK       I    between atoms: C12_13  and  N1_15 
REMARK   11  A    between atoms: C13_16  and  N1_15 
ROOT
ATOM      1  C10 OHN d          39.086  21.285  10.197  0.00  0.00     0.135 C 
ATOM      2  O1  OHN d          39.143  20.633   9.169  0.00  0.00    -0.297 OA
ENDROOT
BRANCH   1   3
ATOM      3  C11 OHN d          40.301  21.920  10.788  0.00  0.00     0.181 C 
BRANCH   3   4
ATOM      4  C12 OHN d          40.980  20.971  11.740  0.00  0.00     0.225 C 
ATOM      5  N1  OHN d          40.899  19.665  11.521  0.00  0.00    -0.347 N 
ATOM      6  H19 OHN d          40.375  19.286  10.746  0.00  0.00     0.163 HD
ATOM      7  O2  OHN d          41.575  21.443  12.680  0.00  0.00    -0.273 OA
BRANCH   5   8
ATOM      8  C13 OHN d          41.599  18.822  12.447  0.00  0.00     0.186 C 
ATOM      9  C14 OHN d          40.787  17.646  12.984  0.00  0.00     0.062 C 
ATOM     10  C15 OHN d          41.726  16.429  13.051  0.00  0.00     0.181 C 
ATOM     11  O4  OHN d          42.797  16.736  12.178  0.00  0.00    -0.320 OA
ATOM     12  C16 OHN d          42.740  18.115  11.823  0.00  0.00     0.281 C 
ATOM     13  O3  OHN d          43.550  18.637  11.105  0.00  0.00    -0.263 OA
ENDBRANCH   5   8
ENDBRANCH   3   4
ENDBRANCH   1   3
BRANCH   1  14
ATOM     14  C9  OHN d          37.795  21.420  10.938  0.00  0.00     0.079 C 
BRANCH  14  15
ATOM     15  C8  OHN d          37.452  22.861  11.230  0.00  0.00     0.007 C 
BRANCH  15  16
ATOM     16  C7  OHN d          36.272  23.168  10.321  0.00  0.00     0.000 C 
BRANCH  16  17
ATOM     17  C6  OHN d          35.444  24.318  10.904  0.00  0.00     0.000 C 
BRANCH  17  18
ATOM     18  C5  OHN d          35.097  25.282   9.780  0.00  0.00     0.000 C 
BRANCH  18  19
ATOM     19  C4  OHN d          35.828  26.591   9.985  0.00  0.00     0.000 C 
BRANCH  19  20
ATOM     20  C3  OHN d          36.354  26.672  11.405  0.00  0.00    -0.000 C 
BRANCH  20  21
ATOM     21  C2  OHN d          37.768  27.206  11.390  0.00  0.00    -0.005 C 
ATOM     22  C1  OHN d          38.604  26.282  12.232  0.00  0.00     0.005 C 
ENDBRANCH  20  21
ENDBRANCH  19  20
ENDBRANCH  18  19
ENDBRANCH  17  18
ENDBRANCH  16  17
ENDBRANCH  15  16
ENDBRANCH  14  15
ENDBRANCH   1  14
TORSDOF 11
ENDMDL
MODEL 4
REMARK VINA RESULT:      -4.9      1.761      2.405
REMARK  11 active torsions:
REMARK  status: ('A' for Active; 'I' for Inactive)
REMARK    1  A    between atoms: C3_3  and  C2_2 
REMARK    2  A    between atoms: C4_4  and  C3_3 
REMARK    3  A    between atoms: C5_5  and  C4_4 
REMARK    4  A    between atoms: C6_6  and  C5_5 
REMARK    5  A    between atoms: C7_7  and  C6_6 
REMARK    6  A    between atoms: C8_8  and  C7_7 
REMARK    7  A    between atoms: C9_9  and  C8_8 
REMARK    8  A    between atoms: C10_10  and  C9_9 
REMARK    9  A    between atoms: C11_12  and  C10_10 
REMARK   10  A    between atoms: C11_12  and  C12_13 
REMARK       I    between atoms: C12_13  and  N1_15 
REMARK   11  A    between atoms: C13_16  and  N1_15 
ROOT
ATOM      1  C10 OHN d          38.693  20.904  10.257  0.00  0.00     0.135 C 
ATOM      2  O1  OHN d          39.167  20.402   9.253  0.00  0.00    -0.297 OA
ENDROOT
BRANCH   1   3
ATOM      3  C11 OHN d          38.960  20.343  11.614  0.00  0.00     0.181 C 
BRANCH   3   4
ATOM      4  C12 OHN d          40.443  20.211  11.845  0.00  0.00     0.225 C 
ATOM      5  N1  OHN d          41.284  20.846  11.039  0.00  0.00    -0.347 N 
ATOM      6  H19 OHN d          40.960  21.398  10.259  0.00  0.00     0.163 HD
ATOM      7  O2  OHN d          40.811  19.518  12.764  0.00  0.00    -0.273 OA
BRANCH   5   8
ATOM      8  C13 OHN d          42.679  20.704  11.339  0.00  0.00     0.186 C 
ATOM      9  C14 OHN d          43.423  19.691  10.472  0.00  0.00     0.062 C 
ATOM     10  C15 OHN d          44.803  20.286  10.147  0.00  0.00     0.181 C 
ATOM     11  O4  OHN d          44.670  21.678  10.366  0.00  0.00    -0.320 OA
ATOM     12  C16 OHN d          43.451  21.936  11.057  0.00  0.00     0.281 C 
ATOM     13  O3  OHN d          43.107  23.040  11.383  0.00  0.00    -0.263 OA
ENDBRANCH   5   8
ENDBRANCH   3   4
ENDBRANCH   1   3
BRANCH   1  14
ATOM     14  C9  OHN d          37.769  22.075  10.153  0.00  0.00     0.079 C 
BRANCH  14  15
ATOM     15  C8  OHN d          37.641  22.819  11.461  0.00  0.00     0.007 C 
BRANCH  15  16
ATOM     16  C7  OHN d          36.197  23.293  11.495  0.00  0.00     0.000 C 
BRANCH  16  17
ATOM     17  C6  OHN d          35.760  23.753  10.100  0.00  0.00     0.000 C 
BRANCH  17  18
ATOM     18  C5  OHN d          34.792  24.916  10.256  0.00  0.00     0.000 C 
BRANCH  18  19
ATOM     19  C4  OHN d          35.483  26.209   9.883  0.00  0.00     0.000 C 
BRANCH  19  20
ATOM     20  C3  OHN d          36.015  26.889  11.130  0.00  0.00    -0.000 C 
BRANCH  20  21
ATOM     21  C2  OHN d          37.506  27.098  10.993  0.00  0.00    -0.005 C 
ATOM     22  C1  OHN d          38.157  26.466  12.192  0.00  0.00     0.005 C 
ENDBRANCH  20  21
ENDBRANCH  19  20
ENDBRANCH  18  19
ENDBRANCH  17  18
ENDBRANCH  16  17
ENDBRANCH  15  16
ENDBRANCH  14  15
ENDBRANCH   1  14
TORSDOF 11
ENDMDL
MODEL 5
REMARK VINA RESULT:      -4.9      1.055      1.195
REMARK  11 active torsions:
REMARK  status: ('A' for Active; 'I' for Inactive)
REMARK    1  A    between atoms: C3_3  and  C2_2 
REMARK    2  A    between atoms: C4_4  and  C3_3 
REMARK    3  A    between atoms: C5_5  and  C4_4 
REMARK    4  A    between atoms: C6_6  and  C5_5 
REMARK    5  A    between atoms: C7_7  and  C6_6 
REMARK    6  A    between atoms: C8_8  and  C7_7 
REMARK    7  A    between atoms: C9_9  and  C8_8 
REMARK    8  A    between atoms: C10_10  and  C9_9 
REMARK    9  A    between atoms: C11_12  and  C10_10 
REMARK   10  A    between atoms: C11_12  and  C12_13 
REMARK       I    between atoms: C12_13  and  N1_15 
REMARK   11  A    between atoms: C13_16  and  N1_15 
ROOT
ATOM      1  C10 OHN d          39.598  20.823  11.651  0.00  0.00     0.135 C 
ATOM      2  O1  OHN d          39.746  21.148  12.816  0.00  0.00    -0.297 OA
ENDROOT
BRANCH   1   3
ATOM      3  C11 OHN d          40.765  20.572  10.755  0.00  0.00     0.181 C 
BRANCH   3   4
ATOM      4  C12 OHN d          41.874  21.548  11.050  0.00  0.00     0.225 C 
ATOM      5  N1  OHN d          41.661  22.845  10.872  0.00  0.00    -0.347 N 
ATOM      6  H19 OHN d          40.783  23.198  10.521  0.00  0.00     0.163 HD
ATOM      7  O2  OHN d          42.929  21.103  11.437  0.00  0.00    -0.273 OA
BRANCH   5   8
ATOM      8  C13 OHN d          42.749  23.718  11.207  0.00  0.00     0.186 C 
ATOM      9  C14 OHN d          43.384  24.437  10.019  0.00  0.00     0.062 C 
ATOM     10  C15 OHN d          43.696  25.877  10.462  0.00  0.00     0.181 C 
ATOM     11  O4  OHN d          42.872  26.105  11.591  0.00  0.00    -0.320 OA
ATOM     12  C16 OHN d          42.321  24.868  12.035  0.00  0.00     0.281 C 
ATOM     13  O3  OHN d          41.601  24.782  12.993  0.00  0.00    -0.263 OA
ENDBRANCH   5   8
ENDBRANCH   3   4
ENDBRANCH   1   3
BRANCH   1  14
ATOM     14  C9  OHN d          38.228  20.724  11.061  0.00  0.00     0.079 C 
BRANCH  14  15
ATOM     15  C8  OHN d          37.952  21.827  10.069  0.00  0.00     0.007 C 
BRANCH  15  16
ATOM     16  C7  OHN d          37.117  22.838  10.838  0.00  0.00     0.000 C 
BRANCH  16  17
ATOM     17  C6  OHN d          35.915  23.279   9.995  0.00  0.00     0.000 C 
BRANCH  17  18
ATOM     18  C5  OHN d          35.236  24.445  10.696  0.00  0.00     0.000 C 
BRANCH  18  19
ATOM     19  C4  OHN d          34.976  25.557   9.703  0.00  0.00     0.000 C 
BRANCH  19  20
ATOM     20  C3  OHN d          35.891  26.731   9.991  0.00  0.00    -0.000 C 
BRANCH  20  21
ATOM     21  C2  OHN d          36.443  26.610  11.392  0.00  0.00    -0.005 C 
ATOM     22  C1  OHN d          37.840  27.167  11.372  0.00  0.00     0.005 C 
ENDBRANCH  20  21
ENDBRANCH  19  20
ENDBRANCH  18  19
ENDBRANCH  17  18
ENDBRANCH  16  17
ENDBRANCH  15  16
ENDBRANCH  14  15
ENDBRANCH   1  14
TORSDOF 11
ENDMDL
MODEL 6
REMARK VINA RESULT:      -4.8      2.678      5.675
REMARK  11 active torsions:
REMARK  status: ('A' for Active; 'I' for Inactive)
REMARK    1  A    between atoms: C3_3  and  C2_2 
REMARK    2  A    between atoms: C4_4  and  C3_3 
REMARK    3  A    between atoms: C5_5  and  C4_4 
REMARK    4  A    between atoms: C6_6  and  C5_5 
REMARK    5  A    between atoms: C7_7  and  C6_6 
REMARK    6  A    between atoms: C8_8  and  C7_7 
REMARK    7  A    between atoms: C9_9  and  C8_8 
REMARK    8  A    between atoms: C10_10  and  C9_9 
REMARK    9  A    between atoms: C11_12  and  C10_10 
REMARK   10  A    between atoms: C11_12  and  C12_13 
REMARK       I    between atoms: C12_13  and  N1_15 
REMARK   11  A    between atoms: C13_16  and  N1_15 
ROOT
ATOM      1  C10 OHN d          43.056  22.854  10.753  0.00  0.00     0.135 C 
ATOM      2  O1  OHN d          43.869  21.947  10.708  0.00  0.00    -0.297 OA
ENDROOT
BRANCH   1   3
ATOM      3  C11 OHN d          41.613  22.596  11.034  0.00  0.00     0.181 C 
BRANCH   3   4
ATOM      4  C12 OHN d          41.314  21.123  10.942  0.00  0.00     0.225 C 
ATOM      5  N1  OHN d          41.863  20.294  11.820  0.00  0.00    -0.347 N 
ATOM      6  H19 OHN d          42.497  20.618  12.536  0.00  0.00     0.163 HD
ATOM      7  O2  OHN d          40.580  20.751  10.057  0.00  0.00    -0.273 OA
BRANCH   5   8
ATOM      8  C13 OHN d          41.506  18.910  11.694  0.00  0.00     0.186 C 
ATOM      9  C14 OHN d          42.687  17.942  11.678  0.00  0.00     0.062 C 
ATOM     10  C15 OHN d          42.285  16.709  12.506  0.00  0.00     0.181 C 
ATOM     11  O4  OHN d          41.211  17.142  13.321  0.00  0.00    -0.320 OA
ATOM     12  C16 OHN d          40.748  18.409  12.863  0.00  0.00     0.281 C 
ATOM     13  O3  OHN d          39.827  18.990  13.372  0.00  0.00    -0.263 OA
ENDBRANCH   5   8
ENDBRANCH   3   4
ENDBRANCH   1   3
BRANCH   1  14
ATOM     14  C9  OHN d          43.473  24.260  10.463  0.00  0.00     0.079 C 
BRANCH  14  15
ATOM     15  C8  OHN d          44.515  24.757  11.436  0.00  0.00     0.007 C 
BRANCH  15  16
ATOM     16  C7  OHN d          43.776  25.752  12.317  0.00  0.00     0.000 C 
BRANCH  16  17
ATOM     17  C6  OHN d          42.974  26.729  11.451  0.00  0.00     0.000 C 
BRANCH  17  18
ATOM     18  C5  OHN d          41.730  27.146  12.220  0.00  0.00     0.000 C 
BRANCH  18  19
ATOM     19  C4  OHN d          41.052  25.923  12.798  0.00  0.00     0.000 C 
BRANCH  19  20
ATOM     20  C3  OHN d          39.550  26.035  12.626  0.00  0.00    -0.000 C 
BRANCH  20  21
ATOM     21  C2  OHN d          39.195  27.435  12.182  0.00  0.00    -0.005 C 
ATOM     22  C1  OHN d          37.927  27.341  11.379  0.00  0.00     0.005 C 
ENDBRANCH  20  21
ENDBRANCH  19  20
ENDBRANCH  18  19
ENDBRANCH  17  18
ENDBRANCH  16  17
ENDBRANCH  15  16
ENDBRANCH  14  15
ENDBRANCH   1  14
TORSDOF 11
ENDMDL
MODEL 7
REMARK VINA RESULT:      -4.8      2.570      4.257
REMARK  11 active torsions:
REMARK  status: ('A' for Active; 'I' for Inactive)
REMARK    1  A    between atoms: C3_3  and  C2_2 
REMARK    2  A    between atoms: C4_4  and  C3_3 
REMARK    3  A    between atoms: C5_5  and  C4_4 
REMARK    4  A    between atoms: C6_6  and  C5_5 
REMARK    5  A    between atoms: C7_7  and  C6_6 
REMARK    6  A    between atoms: C8_8  and  C7_7 
REMARK    7  A    between atoms: C9_9  and  C8_8 
REMARK    8  A    between atoms: C10_10  and  C9_9 
REMARK    9  A    between atoms: C11_12  and  C10_10 
REMARK   10  A    between atoms: C11_12  and  C12_13 
REMARK       I    between atoms: C12_13  and  N1_15 
REMARK   11  A    between atoms: C13_16  and  N1_15 
ROOT
ATOM      1  C10 OHN d          38.137  21.367  10.429  0.00  0.00     0.135 C 
ATOM      2  O1  OHN d          37.777  20.413  11.098  0.00  0.00    -0.297 OA
ENDROOT
BRANCH   1   3
ATOM      3  C11 OHN d          39.502  21.430   9.830  0.00  0.00     0.181 C 
BRANCH   3   4
ATOM      4  C12 OHN d          40.530  20.921  10.807  0.00  0.00     0.225 C 
ATOM      5  N1  OHN d          40.847  19.633  10.802  0.00  0.00    -0.347 N 
ATOM      6  H19 OHN d          40.402  18.977  10.177  0.00  0.00     0.163 HD
ATOM      7  O2  OHN d          41.026  21.717  11.569  0.00  0.00    -0.273 OA
BRANCH   5   8
ATOM      8  C13 OHN d          41.858  19.225  11.734  0.00  0.00     0.186 C 
ATOM      9  C14 OHN d          41.596  17.887  12.421  0.00  0.00     0.062 C 
ATOM     10  C15 OHN d          42.939  17.143  12.510  0.00  0.00     0.181 C 
ATOM     11  O4  OHN d          43.768  17.752  11.537  0.00  0.00    -0.320 OA
ATOM     12  C16 OHN d          43.160  18.957  11.082  0.00  0.00     0.281 C 
ATOM     13  O3  OHN d          43.669  19.677  10.267  0.00  0.00    -0.263 OA
ENDBRANCH   5   8
ENDBRANCH   3   4
ENDBRANCH   1   3
BRANCH   1  14
ATOM     14  C9  OHN d          37.233  22.542  10.238  0.00  0.00     0.079 C 
BRANCH  14  15
ATOM     15  C8  OHN d          36.674  23.051  11.545  0.00  0.00     0.007 C 
BRANCH  15  16
ATOM     16  C7  OHN d          37.786  23.905  12.133  0.00  0.00     0.000 C 
BRANCH  16  17
ATOM     17  C6  OHN d          37.203  25.191  12.729  0.00  0.00     0.000 C 
BRANCH  17  18
ATOM     18  C5  OHN d          38.015  26.371  12.218  0.00  0.00     0.000 C 
BRANCH  18  19
ATOM     19  C4  OHN d          37.371  26.931  10.968  0.00  0.00     0.000 C 
BRANCH  19  20
ATOM     20  C3  OHN d          35.868  26.738  11.029  0.00  0.00    -0.000 C 
BRANCH  20  21
ATOM     21  C2  OHN d          35.373  26.208   9.703  0.00  0.00    -0.005 C 
ATOM     22  C1  OHN d          33.886  26.024   9.823  0.00  0.00     0.005 C 
ENDBRANCH  20  21
ENDBRANCH  19  20
ENDBRANCH  18  19
ENDBRANCH  17  18
ENDBRANCH  16  17
ENDBRANCH  15  16
ENDBRANCH  14  15
ENDBRANCH   1  14
TORSDOF 11
ENDMDL
MODEL 8
REMARK VINA RESULT:      -4.7      2.564      5.132
REMARK  11 active torsions:
REMARK  status: ('A' for Active; 'I' for Inactive)
REMARK    1  A    between atoms: C3_3  and  C2_2 
REMARK    2  A    between atoms: C4_4  and  C3_3 
REMARK    3  A    between atoms: C5_5  and  C4_4 
REMARK    4  A    between atoms: C6_6  and  C5_5 
REMARK    5  A    between atoms: C7_7  and  C6_6 
REMARK    6  A    between atoms: C8_8  and  C7_7 
REMARK    7  A    between atoms: C9_9  and  C8_8 
REMARK    8  A    between atoms: C10_10  and  C9_9 
REMARK    9  A    between atoms: C11_12  and  C10_10 
REMARK   10  A    between atoms: C11_12  and  C12_13 
REMARK       I    between atoms: C12_13  and  N1_15 
REMARK   11  A    between atoms: C13_16  and  N1_15 
ROOT
ATOM      1  C10 OHN d          37.754  21.717  11.007  0.00  0.00     0.135 C 
ATOM      2  O1  OHN d          37.195  22.479  10.237  0.00  0.00    -0.297 OA
ENDROOT
BRANCH   1   3
ATOM      3  C11 OHN d          37.629  21.868  12.487  0.00  0.00     0.181 C 
BRANCH   3   4
ATOM      4  C12 OHN d          37.593  23.326  12.865  0.00  0.00     0.225 C 
ATOM      5  N1  OHN d          38.318  24.194  12.171  0.00  0.00    -0.347 N 
ATOM      6  H19 OHN d          38.914  23.902  11.410  0.00  0.00     0.163 HD
ATOM      7  O2  OHN d          36.899  23.649  13.800  0.00  0.00    -0.273 OA
BRANCH   5   8
ATOM      8  C13 OHN d          38.208  25.569  12.563  0.00  0.00     0.186 C 
ATOM      9  C14 OHN d          39.539  26.297  12.734  0.00  0.00     0.062 C 
ATOM     10  C15 OHN d          39.367  27.714  12.162  0.00  0.00     0.181 C 
ATOM     11  O4  OHN d          38.242  27.637  11.306  0.00  0.00    -0.320 OA
ATOM     12  C16 OHN d          37.560  26.406  11.529  0.00  0.00     0.281 C 
ATOM     13  O3  OHN d          36.556  26.101  10.942  0.00  0.00    -0.263 OA
ENDBRANCH   5   8
ENDBRANCH   3   4
ENDBRANCH   1   3
BRANCH   1  14
ATOM     14  C9  OHN d          38.639  20.631  10.486  0.00  0.00     0.079 C 
BRANCH  14  15
ATOM     15  C8  OHN d          39.779  21.172   9.658  0.00  0.00     0.007 C 
BRANCH  15  16
ATOM     16  C7  OHN d          40.926  21.340  10.642  0.00  0.00     0.000 C 
BRANCH  16  17
ATOM     17  C6  OHN d          41.393  22.800  10.662  0.00  0.00     0.000 C 
BRANCH  17  18
ATOM     18  C5  OHN d          41.843  23.143  12.074  0.00  0.00     0.000 C 
BRANCH  18  19
ATOM     19  C4  OHN d          42.836  24.284  12.030  0.00  0.00     0.000 C 
BRANCH  19  20
ATOM     20  C3  OHN d          43.494  24.345  10.666  0.00  0.00    -0.000 C 
BRANCH  20  21
ATOM     21  C2  OHN d          43.714  25.788  10.274  0.00  0.00    -0.005 C 
ATOM     22  C1  OHN d          43.132  26.641  11.368  0.00  0.00     0.005 C 
ENDBRANCH  20  21
ENDBRANCH  19  20
ENDBRANCH  18  19
ENDBRANCH  17  18
ENDBRANCH  16  17
ENDBRANCH  15  16
ENDBRANCH  14  15
ENDBRANCH   1  14
TORSDOF 11
ENDMDL
MODEL 9
REMARK VINA RESULT:      -4.7      4.492      7.808
REMARK  11 active torsions:
REMARK  status: ('A' for Active; 'I' for Inactive)
REMARK    1  A    between atoms: C3_3  and  C2_2 
REMARK    2  A    between atoms: C4_4  and  C3_3 
REMARK    3  A    between atoms: C5_5  and  C4_4 
REMARK    4  A    between atoms: C6_6  and  C5_5 
REMARK    5  A    between atoms: C7_7  and  C6_6 
REMARK    6  A    between atoms: C8_8  and  C7_7 
REMARK    7  A    between atoms: C9_9  and  C8_8 
REMARK    8  A    between atoms: C10_10  and  C9_9 
REMARK    9  A    between atoms: C11_12  and  C10_10 
REMARK   10  A    between atoms: C11_12  and  C12_13 
REMARK       I    between atoms: C12_13  and  N1_15 
REMARK   11  A    between atoms: C13_16  and  N1_15 
ROOT
ATOM      1  C10 OHN d          36.132  23.885  11.389  0.00  0.00     0.135 C 
ATOM      2  O1  OHN d          35.568  24.371  12.354  0.00  0.00    -0.297 OA
ENDROOT
BRANCH   1   3
ATOM      3  C11 OHN d          35.543  23.958  10.019  0.00  0.00     0.181 C 
BRANCH   3   4
ATOM      4  C12 OHN d          34.760  25.234   9.851  0.00  0.00     0.225 C 
ATOM      5  N1  OHN d          33.470  25.249  10.162  0.00  0.00    -0.347 N 
ATOM      6  H19 OHN d          32.991  24.423  10.488  0.00  0.00     0.163 HD
ATOM      7  O2  OHN d          35.345  26.203   9.429  0.00  0.00    -0.273 OA
BRANCH   5   8
ATOM      8  C13 OHN d          32.797  26.507  10.011  0.00  0.00     0.186 C 
ATOM      9  C14 OHN d          31.552  26.466   9.127  0.00  0.00     0.062 C 
ATOM     10  C15 OHN d          30.489  27.363   9.784  0.00  0.00     0.181 C 
ATOM     11  O4  OHN d          30.891  27.488  11.136  0.00  0.00    -0.320 OA
ATOM     12  C16 OHN d          32.222  27.001  11.283  0.00  0.00     0.281 C 
ATOM     13  O3  OHN d          32.809  27.013  12.331  0.00  0.00    -0.263 OA
ENDBRANCH   5   8
ENDBRANCH   3   4
ENDBRANCH   1   3
BRANCH   1  14
ATOM     14  C9  OHN d          37.417  23.141  11.560  0.00  0.00     0.079 C 
BRANCH  14  15
ATOM     15  C8  OHN d          37.202  21.743  12.086  0.00  0.00     0.007 C 
BRANCH  15  16
ATOM     16  C7  OHN d          38.077  20.861  11.209  0.00  0.00     0.000 C 
BRANCH  16  17
ATOM     17  C6  OHN d          38.319  21.539   9.856  0.00  0.00     0.000 C 
BRANCH  17  18
ATOM     18  C5  OHN d          39.726  21.198   9.391  0.00  0.00     0.000 C 
BRANCH  18  19
ATOM     19  C4  OHN d          40.639  21.048  10.588  0.00  0.00     0.000 C 
BRANCH  19  20
ATOM     20  C3  OHN d          41.386  22.344  10.835  0.00  0.00    -0.000 C 
BRANCH  20  21
ATOM     21  C2  OHN d          41.194  22.771  12.272  0.00  0.00    -0.005 C 
ATOM     22  C1  OHN d          40.906  24.247  12.264  0.00  0.00     0.005 C 
ENDBRANCH  20  21
ENDBRANCH  19  20
ENDBRANCH  18  19
ENDBRANCH  17  18
ENDBRANCH  16  17
ENDBRANCH  15  16
ENDBRANCH  14  15
ENDBRANCH   1  14
TORSDOF 11
ENDMDL
MODEL 10
REMARK VINA RESULT:      -4.7      1.498      4.827
REMARK  11 active torsions:
REMARK  status: ('A' for Active; 'I' for Inactive)
REMARK    1  A    between atoms: C3_3  and  C2_2 
REMARK    2  A    between atoms: C4_4  and  C3_3 
REMARK    3  A    between atoms: C5_5  and  C4_4 
REMARK    4  A    between atoms: C6_6  and  C5_5 
REMARK    5  A    between atoms: C7_7  and  C6_6 
REMARK    6  A    between atoms: C8_8  and  C7_7 
REMARK    7  A    between atoms: C9_9  and  C8_8 
REMARK    8  A    between atoms: C10_10  and  C9_9 
REMARK    9  A    between atoms: C11_12  and  C10_10 
REMARK   10  A    between atoms: C11_12  and  C12_13 
REMARK       I    between atoms: C12_13  and  N1_15 
REMARK   11  A    between atoms: C13_16  and  N1_15 
ROOT
ATOM      1  C10 OHN d          43.237  25.315  11.717  0.00  0.00     0.135 C 
ATOM      2  O1  OHN d          43.393  24.794  12.808  0.00  0.00    -0.297 OA
ENDROOT
BRANCH   1   3
ATOM      3  C11 OHN d          43.394  24.540  10.451  0.00  0.00     0.181 C 
BRANCH   3   4
ATOM      4  C12 OHN d          42.984  23.106  10.658  0.00  0.00     0.225 C 
ATOM      5  N1  OHN d          41.710  22.824  10.900  0.00  0.00    -0.347 N 
ATOM      6  H19 OHN d          41.009  23.546  10.972  0.00  0.00     0.163 HD
ATOM      7  O2  OHN d          43.844  22.259  10.600  0.00  0.00    -0.273 OA
BRANCH   5   8
ATOM      8  C13 OHN d          41.386  21.435  11.052  0.00  0.00     0.186 C 
ATOM      9  C14 OHN d          41.062  21.003  12.480  0.00  0.00     0.062 C 
ATOM     10  C15 OHN d          39.887  20.014  12.409  0.00  0.00     0.181 C 
ATOM     11  O4  OHN d          39.279  20.248  11.152  0.00  0.00    -0.320 OA
ATOM     12  C16 OHN d          40.133  21.063  10.355  0.00  0.00     0.281 C 
ATOM     13  O3  OHN d          39.860  21.392   9.232  0.00  0.00    -0.263 OA
ENDBRANCH   5   8
ENDBRANCH   3   4
ENDBRANCH   1   3
BRANCH   1  14
ATOM     14  C9  OHN d          42.940  26.776  11.612  0.00  0.00     0.079 C 
BRANCH  14  15
ATOM     15  C8  OHN d          42.003  27.248  12.698  0.00  0.00     0.007 C 
BRANCH  15  16
ATOM     16  C7  OHN d          40.622  26.822  12.228  0.00  0.00     0.000 C 
BRANCH  16  17
ATOM     17  C6  OHN d          39.661  28.014  12.265  0.00  0.00     0.000 C 
BRANCH  17  18
ATOM     18  C5  OHN d          38.323  27.575  11.689  0.00  0.00     0.000 C 
BRANCH  18  19
ATOM     19  C4  OHN d          37.939  26.228  12.259  0.00  0.00     0.000 C 
BRANCH  19  20
ATOM     20  C3  OHN d          36.842  25.604  11.418  0.00  0.00    -0.000 C 
BRANCH  20  21
ATOM     21  C2  OHN d          36.290  26.636  10.463  0.00  0.00    -0.005 C 
ATOM     22  C1  OHN d          35.200  25.971   9.668  0.00  0.00     0.005 C 
ENDBRANCH  20  21
ENDBRANCH  19  20
ENDBRANCH  18  19
ENDBRANCH  17  18
ENDBRANCH  16  17
ENDBRANCH  15  16
ENDBRANCH  14  15
ENDBRANCH   1  14
TORSDOF 11
ENDMDL
MODEL 11
REMARK VINA RESULT:      -4.7      1.540      4.984
REMARK  11 active torsions:
REMARK  status: ('A' for Active; 'I' for Inactive)
REMARK    1  A    between atoms: C3_3  and  C2_2 
REMARK    2  A    between atoms: C4_4  and  C3_3 
REMARK    3  A    between atoms: C5_5  and  C4_4 
REMARK    4  A    between atoms: C6_6  and  C5_5 
REMARK    5  A    between atoms: C7_7  and  C6_6 
REMARK    6  A    between atoms: C8_8  and  C7_7 
REMARK    7  A    between atoms: C9_9  and  C8_8 
REMARK    8  A    between atoms: C10_10  and  C9_9 
REMARK    9  A    between atoms: C11_12  and  C10_10 
REMARK   10  A    between atoms: C11_12  and  C12_13 
REMARK       I    between atoms: C12_13  and  N1_15 
REMARK   11  A    between atoms: C13_16  and  N1_15 
ROOT
ATOM      1  C10 OHN d          44.018  24.985  11.061  0.00  0.00     0.135 C 
ATOM      2  O1  OHN d          45.078  24.831  11.641  0.00  0.00    -0.297 OA
ENDROOT
BRANCH   1   3
ATOM      3  C11 OHN d          43.371  23.873  10.304  0.00  0.00     0.181 C 
BRANCH   3   4
ATOM      4  C12 OHN d          42.393  23.138  11.183  0.00  0.00     0.225 C 
ATOM      5  N1  OHN d          41.246  22.716  10.666  0.00  0.00    -0.347 N 
ATOM      6  H19 OHN d          40.998  22.894   9.704  0.00  0.00     0.163 HD
ATOM      7  O2  OHN d          42.694  22.966  12.340  0.00  0.00    -0.273 OA
BRANCH   5   8
ATOM      8  C13 OHN d          40.379  21.993  11.551  0.00  0.00     0.186 C 
ATOM      9  C14 OHN d          38.962  22.550  11.658  0.00  0.00     0.062 C 
ATOM     10  C15 OHN d          37.997  21.352  11.706  0.00  0.00     0.181 C 
ATOM     11  O4  OHN d          38.729  20.263  11.174  0.00  0.00    -0.320 OA
ATOM     12  C16 OHN d          40.106  20.616  11.082  0.00  0.00     0.281 C 
ATOM     13  O3  OHN d          40.948  19.859  10.679  0.00  0.00    -0.263 OA
ENDBRANCH   5   8
ENDBRANCH   3   4
ENDBRANCH   1   3
BRANCH   1  14
ATOM     14  C9  OHN d          43.355  26.325  11.039  0.00  0.00     0.079 C 
BRANCH  14  15
ATOM     15  C8  OHN d          42.965  26.792  12.421  0.00  0.00     0.007 C 
BRANCH  15  16
ATOM     16  C7  OHN d          41.475  27.079  12.325  0.00  0.00     0.000 C 
BRANCH  16  17
ATOM     17  C6  OHN d          40.673  25.871  12.822  0.00  0.00     0.000 C 
BRANCH  17  18
ATOM     18  C5  OHN d          39.192  26.205  12.732  0.00  0.00     0.000 C 
BRANCH  18  19
ATOM     19  C4  OHN d          39.008  27.525  12.015  0.00  0.00     0.000 C 
BRANCH  19  20
ATOM     20  C3  OHN d          37.731  27.496  11.198  0.00  0.00    -0.000 C 
BRANCH  20  21
ATOM     21  C2  OHN d          37.070  26.144  11.341  0.00  0.00    -0.005 C 
ATOM     22  C1  OHN d          35.822  26.166  10.503  0.00  0.00     0.005 C 
ENDBRANCH  20  21
ENDBRANCH  19  20
ENDBRANCH  18  19
ENDBRANCH  17  18
ENDBRANCH  16  17
ENDBRANCH  15  16
ENDBRANCH  14  15
ENDBRANCH   1  14
TORSDOF 11
ENDMDL
MODEL 12
REMARK VINA RESULT:      -4.7      2.314      3.721
REMARK  11 active torsions:
REMARK  status: ('A' for Active; 'I' for Inactive)
REMARK    1  A    between atoms: C3_3  and  C2_2 
REMARK    2  A    between atoms: C4_4  and  C3_3 
REMARK    3  A    between atoms: C5_5  and  C4_4 
REMARK    4  A    between atoms: C6_6  and  C5_5 
REMARK    5  A    between atoms: C7_7  and  C6_6 
REMARK    6  A    between atoms: C8_8  and  C7_7 
REMARK    7  A    between atoms: C9_9  and  C8_8 
REMARK    8  A    between atoms: C10_10  and  C9_9 
REMARK    9  A    between atoms: C11_12  and  C10_10 
REMARK   10  A    between atoms: C11_12  and  C12_13 
REMARK       I    between atoms: C12_13  and  N1_15 
REMARK   11  A    between atoms: C13_16  and  N1_15 
ROOT
ATOM      1  C10 OHN d          38.202  22.470  11.632  0.00  0.00     0.135 C 
ATOM      2  O1  OHN d          39.310  22.915  11.879  0.00  0.00    -0.297 OA
ENDROOT
BRANCH   1   3
ATOM      3  C11 OHN d          38.011  21.071  11.147  0.00  0.00     0.181 C 
BRANCH   3   4
ATOM      4  C12 OHN d          39.311  20.513  10.627  0.00  0.00     0.225 C 
ATOM      5  N1  OHN d          40.229  20.097  11.489  0.00  0.00    -0.347 N 
ATOM      6  H19 OHN d          40.093  20.165  12.487  0.00  0.00     0.163 HD
ATOM      7  O2  OHN d          39.467  20.472   9.430  0.00  0.00    -0.273 OA
BRANCH   5   8
ATOM      8  C13 OHN d          41.426  19.545  10.924  0.00  0.00     0.186 C 
ATOM      9  C14 OHN d          42.588  20.527  10.797  0.00  0.00     0.062 C 
ATOM     10  C15 OHN d          43.875  19.772  11.172  0.00  0.00     0.181 C 
ATOM     11  O4  OHN d          43.443  18.647  11.917  0.00  0.00    -0.320 OA
ATOM     12  C16 OHN d          42.032  18.501  11.780  0.00  0.00     0.281 C 
ATOM     13  O3  OHN d          41.416  17.609  12.299  0.00  0.00    -0.263 OA
ENDBRANCH   5   8
ENDBRANCH   3   4
ENDBRANCH   1   3
BRANCH   1  14
ATOM     14  C9  OHN d          36.993  23.340  11.753  0.00  0.00     0.079 C 
BRANCH  14  15
ATOM     15  C8  OHN d          36.210  23.412  10.464  0.00  0.00     0.007 C 
BRANCH  15  16
ATOM     16  C7  OHN d          35.101  24.415  10.741  0.00  0.00     0.000 C 
BRANCH  16  17
ATOM     17  C6  OHN d          35.096  25.505   9.665  0.00  0.00     0.000 C 
BRANCH  17  18
ATOM     18  C5  OHN d          35.917  26.683  10.166  0.00  0.00     0.000 C 
BRANCH  18  19
ATOM     19  C4  OHN d          35.625  26.922  11.631  0.00  0.00     0.000 C 
BRANCH  19  20
ATOM     20  C3  OHN d          36.917  27.197  12.377  0.00  0.00    -0.000 C 
BRANCH  20  21
ATOM     21  C2  OHN d          38.036  27.417  11.386  0.00  0.00    -0.005 C 
ATOM     22  C1  OHN d          39.330  27.331  12.147  0.00  0.00     0.005 C 
ENDBRANCH  20  21
ENDBRANCH  19  20
ENDBRANCH  18  19
ENDBRANCH  17  18
ENDBRANCH  16  17
ENDBRANCH  15  16
ENDBRANCH  14  15
ENDBRANCH   1  14
TORSDOF 11
ENDMDL
MODEL 13
REMARK VINA RESULT:      -4.7      1.680      2.953
REMARK  11 active torsions:
REMARK  status: ('A' for Active; 'I' for Inactive)
REMARK    1  A    between atoms: C3_3  and  C2_2 
REMARK    2  A    between atoms: C4_4  and  C3_3 
REMARK    3  A    between atoms: C5_5  and  C4_4 
REMARK    4  A    between atoms: C6_6  and  C5_5 
REMARK    5  A    between atoms: C7_7  and  C6_6 
REMARK    6  A    between atoms: C8_8  and  C7_7 
REMARK    7  A    between atoms: C9_9  and  C8_8 
REMARK    8  A    between atoms: C10_10  and  C9_9 
REMARK    9  A    between atoms: C11_12  and  C10_10 
REMARK   10  A    between atoms: C11_12  and  C12_13 
REMARK       I    between atoms: C12_13  and  N1_15 
REMARK   11  A    between atoms: C13_16  and  N1_15 
ROOT
ATOM      1  C10 OHN d          37.418  22.042  11.549  0.00  0.00     0.135 C 
ATOM      2  O1  OHN d          37.477  22.409  12.710  0.00  0.00    -0.297 OA
ENDROOT
BRANCH   1   3
ATOM      3  C11 OHN d          38.075  20.783  11.092  0.00  0.00     0.181 C 
BRANCH   3   4
ATOM      4  C12 OHN d          39.410  21.086  10.462  0.00  0.00     0.225 C 
ATOM      5  N1  OHN d          40.374  21.611  11.207  0.00  0.00    -0.347 N 
ATOM      6  H19 OHN d          40.232  21.836  12.181  0.00  0.00     0.163 HD
ATOM      7  O2  OHN d          39.548  20.840   9.287  0.00  0.00    -0.273 OA
BRANCH   5   8
ATOM      8  C13 OHN d          41.629  21.840  10.551  0.00  0.00     0.186 C 
ATOM      9  C14 OHN d          42.243  23.216  10.801  0.00  0.00     0.062 C 
ATOM     10  C15 OHN d          43.759  23.021  10.974  0.00  0.00     0.181 C 
ATOM     11  O4  OHN d          43.924  21.653  11.297  0.00  0.00    -0.320 OA
ATOM     12  C16 OHN d          42.705  20.956  11.055  0.00  0.00     0.281 C 
ATOM     13  O3  OHN d          42.583  19.774  11.231  0.00  0.00    -0.263 OA
ENDBRANCH   5   8
ENDBRANCH   3   4
ENDBRANCH   1   3
BRANCH   1  14
ATOM     14  C9  OHN d          36.727  22.884  10.525  0.00  0.00     0.079 C 
BRANCH  14  15
ATOM     15  C8  OHN d          35.992  24.048  11.144  0.00  0.00     0.007 C 
BRANCH  15  16
ATOM     16  C7  OHN d          35.328  24.753   9.971  0.00  0.00     0.000 C 
BRANCH  16  17
ATOM     17  C6  OHN d          35.542  26.266  10.076  0.00  0.00     0.000 C 
BRANCH  17  18
ATOM     18  C5  OHN d          36.390  26.550  11.306  0.00  0.00     0.000 C 
BRANCH  18  19
ATOM     19  C4  OHN d          37.608  27.357  10.912  0.00  0.00     0.000 C 
BRANCH  19  20
ATOM     20  C3  OHN d          38.623  27.345  12.038  0.00  0.00    -0.000 C 
BRANCH  20  21
ATOM     21  C2  OHN d          38.442  26.095  12.868  0.00  0.00    -0.005 C 
ATOM     22  C1  OHN d          39.612  25.196  12.582  0.00  0.00     0.005 C 
ENDBRANCH  20  21
ENDBRANCH  19  20
ENDBRANCH  18  19
ENDBRANCH  17  18
ENDBRANCH  16  17
ENDBRANCH  15  16
ENDBRANCH  14  15
ENDBRANCH   1  14
TORSDOF 11
ENDMDL
MODEL 14
REMARK VINA RESULT:      -4.7      2.429      5.529
REMARK  11 active torsions:
REMARK  status: ('A' for Active; 'I' for Inactive)
REMARK    1  A    between atoms: C3_3  and  C2_2 
REMARK    2  A    between atoms: C4_4  and  C3_3 
REMARK    3  A    between atoms: C5_5  and  C4_4 
REMARK    4  A    between atoms: C6_6  and  C5_5 
REMARK    5  A    between atoms: C7_7  and  C6_6 
REMARK    6  A    between atoms: C8_8  and  C7_7 
REMARK    7  A    between atoms: C9_9  and  C8_8 
REMARK    8  A    between atoms: C10_10  and  C9_9 
REMARK    9  A    between atoms: C11_12  and  C10_10 
REMARK   10  A    between atoms: C11_12  and  C12_13 
REMARK       I    between atoms: C12_13  and  N1_15 
REMARK   11  A    between atoms: C13_16  and  N1_15 
ROOT
ATOM      1  C10 OHN d          39.755  21.052  10.307  0.00  0.00     0.135 C 
ATOM      2  O1  OHN d          39.666  21.352   9.129  0.00  0.00    -0.297 OA
ENDROOT
BRANCH   1   3
ATOM      3  C11 OHN d          38.593  20.499  11.064  0.00  0.00     0.181 C 
BRANCH   3   4
ATOM      4  C12 OHN d          37.774  21.615  11.660  0.00  0.00     0.225 C 
ATOM      5  N1  OHN d          37.672  22.765  11.005  0.00  0.00    -0.347 N 
ATOM      6  H19 OHN d          38.147  22.923  10.128  0.00  0.00     0.163 HD
ATOM      7  O2  OHN d          37.242  21.417  12.726  0.00  0.00    -0.273 OA
BRANCH   5   8
ATOM      8  C13 OHN d          36.848  23.769  11.613  0.00  0.00     0.186 C 
ATOM      9  C14 OHN d          37.604  24.988  12.138  0.00  0.00     0.062 C 
ATOM     10  C15 OHN d          36.761  26.232  11.810  0.00  0.00     0.181 C 
ATOM     11  O4  OHN d          35.886  25.825  10.774  0.00  0.00    -0.320 OA
ATOM     12  C16 OHN d          35.922  24.406  10.650  0.00  0.00     0.281 C 
ATOM     13  O3  OHN d          35.253  23.804   9.855  0.00  0.00    -0.263 OA
ENDBRANCH   5   8
ENDBRANCH   3   4
ENDBRANCH   1   3
BRANCH   1  14
ATOM     14  C9  OHN d          41.028  21.289  11.054  0.00  0.00     0.079 C 
BRANCH  14  15
ATOM     15  C8  OHN d          41.336  22.759  11.207  0.00  0.00     0.007 C 
BRANCH  15  16
ATOM     16  C7  OHN d          42.837  22.863  10.992  0.00  0.00     0.000 C 
BRANCH  16  17
ATOM     17  C6  OHN d          43.160  24.075  10.111  0.00  0.00     0.000 C 
BRANCH  17  18
ATOM     18  C5  OHN d          44.002  25.049  10.920  0.00  0.00     0.000 C 
BRANCH  18  19
ATOM     19  C4  OHN d          43.412  26.439  10.821  0.00  0.00     0.000 C 
BRANCH  19  20
ATOM     20  C3  OHN d          43.061  26.951  12.204  0.00  0.00    -0.000 C 
BRANCH  20  21
ATOM     21  C2  OHN d          41.563  27.126  12.313  0.00  0.00    -0.005 C 
ATOM     22  C1  OHN d          41.017  25.894  12.979  0.00  0.00     0.005 C 
ENDBRANCH  20  21
ENDBRANCH  19  20
ENDBRANCH  18  19
ENDBRANCH  17  18
ENDBRANCH  16  17
ENDBRANCH  15  16
ENDBRANCH  14  15
ENDBRANCH   1  14
TORSDOF 11
ENDMDL
MODEL 15
REMARK VINA RESULT:      -4.7      1.826      4.503
REMARK  11 active torsions:
REMARK  status: ('A' for Active; 'I' for Inactive)
REMARK    1  A    between atoms: C3_3  and  C2_2 
REMARK    2  A    between atoms: C4_4  and  C3_3 
REMARK    3  A    between atoms: C5_5  and  C4_4 
REMARK    4  A    between atoms: C6_6  and  C5_5 
REMARK    5  A    between atoms: C7_7  and  C6_6 
REMARK    6  A    between atoms: C8_8  and  C7_7 
REMARK    7  A    between atoms: C9_9  and  C8_8 
REMARK    8  A    between atoms: C10_10  and  C9_9 
REMARK    9  A    between atoms: C11_12  and  C10_10 
REMARK   10  A    between atoms: C11_12  and  C12_13 
REMARK       I    between atoms: C12_13  and  N1_15 
REMARK   11  A    between atoms: C13_16  and  N1_15 
ROOT
ATOM      1  C10 OHN d          42.321  26.598  12.809  0.00  0.00     0.135 C 
ATOM      2  O1  OHN d          42.738  26.245  13.899  0.00  0.00    -0.297 OA
ENDROOT
BRANCH   1   3
ATOM      3  C11 OHN d          43.245  26.865  11.668  0.00  0.00     0.181 C 
BRANCH   3   4
ATOM      4  C12 OHN d          43.447  25.616  10.851  0.00  0.00     0.225 C 
ATOM      5  N1  OHN d          43.320  24.432  11.435  0.00  0.00    -0.347 N 
ATOM      6  H19 OHN d          43.116  24.342  12.420  0.00  0.00     0.163 HD
ATOM      7  O2  OHN d          43.724  25.745   9.682  0.00  0.00    -0.273 OA
BRANCH   5   8
ATOM      8  C13 OHN d          43.491  23.286  10.590  0.00  0.00     0.186 C 
ATOM      9  C14 OHN d          44.771  22.490  10.837  0.00  0.00     0.062 C 
ATOM     10  C15 OHN d          44.416  20.998  10.725  0.00  0.00     0.181 C 
ATOM     11  O4  OHN d          43.013  20.934  10.905  0.00  0.00    -0.320 OA
ATOM     12  C16 OHN d          42.464  22.246  10.825  0.00  0.00     0.281 C 
ATOM     13  O3  OHN d          41.287  22.468  10.925  0.00  0.00    -0.263 OA
ENDBRANCH   5   8
ENDBRANCH   3   4
ENDBRANCH   1   3
BRANCH   1  14
ATOM     14  C9  OHN d          40.860  26.833  12.598  0.00  0.00     0.079 C 
BRANCH  14  15
ATOM     15  C8  OHN d          40.051  25.567  12.740  0.00  0.00     0.007 C 
BRANCH  15  16
ATOM     16  C7  OHN d          38.604  26.018  12.619  0.00  0.00     0.000 C 
BRANCH  16  17
ATOM     17  C6  OHN d          38.527  27.342  11.850  0.00  0.00     0.000 C 
BRANCH  17  18
ATOM     18  C5  OHN d          37.364  27.266  10.873  0.00  0.00     0.000 C 
BRANCH  18  19
ATOM     19  C4  OHN d          36.484  26.085  11.217  0.00  0.00     0.000 C 
BRANCH  19  20
ATOM     20  C3  OHN d          35.524  25.806  10.076  0.00  0.00    -0.000 C 
BRANCH  20  21
ATOM     21  C2  OHN d          35.303  24.316   9.954  0.00  0.00    -0.005 C 
ATOM     22  C1  OHN d          36.287  23.642  10.870  0.00  0.00     0.005 C 
ENDBRANCH  20  21
ENDBRANCH  19  20
ENDBRANCH  18  19
ENDBRANCH  17  18
ENDBRANCH  16  17
ENDBRANCH  15  16
ENDBRANCH  14  15
ENDBRANCH   1  14
TORSDOF 11
ENDMDL
MODEL 16
REMARK VINA RESULT:      -4.7      2.576      3.616
REMARK  11 active torsions:
REMARK  status: ('A' for Active; 'I' for Inactive)
REMARK    1  A    between atoms: C3_3  and  C2_2 
REMARK    2  A    between atoms: C4_4  and  C3_3 
REMARK    3  A    between atoms: C5_5  and  C4_4 
REMARK    4  A    between atoms: C6_6  and  C5_5 
REMARK    5  A    between atoms: C7_7  and  C6_6 
REMARK    6  A    between atoms: C8_8  and  C7_7 
REMARK    7  A    between atoms: C9_9  and  C8_8 
REMARK    8  A    between atoms: C10_10  and  C9_9 
REMARK    9  A    between atoms: C11_12  and  C10_10 
REMARK   10  A    between atoms: C11_12  and  C12_13 
REMARK       I    between atoms: C12_13  and  N1_15 
REMARK   11  A    between atoms: C13_16  and  N1_15 
ROOT
ATOM      1  C10 OHN d          41.231  21.075  11.094  0.00  0.00     0.135 C 
ATOM      2  O1  OHN d          41.663  21.810  11.964  0.00  0.00    -0.297 OA
ENDROOT
BRANCH   1   3
ATOM      3  C11 OHN d          41.634  19.640  11.010  0.00  0.00     0.181 C 
BRANCH   3   4
ATOM      4  C12 OHN d          43.135  19.518  10.968  0.00  0.00     0.225 C 
ATOM      5  N1  OHN d          43.848  20.471  10.382  0.00  0.00    -0.347 N 
ATOM      6  H19 OHN d          43.411  21.268   9.941  0.00  0.00     0.163 HD
ATOM      7  O2  OHN d          43.636  18.540  11.473  0.00  0.00    -0.273 OA
BRANCH   5   8
ATOM      8  C13 OHN d          45.272  20.307  10.412  0.00  0.00     0.186 C 
ATOM      9  C14 OHN d          45.966  20.481   9.063  0.00  0.00     0.062 C 
ATOM     10  C15 OHN d          47.274  21.251   9.312  0.00  0.00     0.181 C 
ATOM     11  O4  OHN d          47.099  21.888  10.564  0.00  0.00    -0.320 OA
ATOM     12  C16 OHN d          45.949  21.352  11.213  0.00  0.00     0.281 C 
ATOM     13  O3  OHN d          45.590  21.708  12.303  0.00  0.00    -0.263 OA
ENDBRANCH   5   8
ENDBRANCH   3   4
ENDBRANCH   1   3
BRANCH   1  14
ATOM     14  C9  OHN d          40.320  21.609  10.035  0.00  0.00     0.079 C 
BRANCH  14  15
ATOM     15  C8  OHN d          39.201  20.651   9.708  0.00  0.00     0.007 C 
BRANCH  15  16
ATOM     16  C7  OHN d          38.133  20.934  10.753  0.00  0.00     0.000 C 
BRANCH  16  17
ATOM     17  C6  OHN d          37.455  22.277  10.463  0.00  0.00     0.000 C 
BRANCH  17  18
ATOM     18  C5  OHN d          37.233  23.001  11.782  0.00  0.00     0.000 C 
BRANCH  18  19
ATOM     19  C4  OHN d          36.306  24.178  11.569  0.00  0.00     0.000 C 
BRANCH  19  20
ATOM     20  C3  OHN d          35.562  24.020  10.258  0.00  0.00    -0.000 C 
BRANCH  20  21
ATOM     21  C2  OHN d          35.168  25.382   9.734  0.00  0.00    -0.005 C 
ATOM     22  C1  OHN d          36.036  26.395  10.426  0.00  0.00     0.005 C 
ENDBRANCH  20  21
ENDBRANCH  19  20
ENDBRANCH  18  19
ENDBRANCH  17  18
ENDBRANCH  16  17
ENDBRANCH  15  16
ENDBRANCH  14  15
ENDBRANCH   1  14
TORSDOF 11
ENDMDL
MODEL 17
REMARK VINA RESULT:      -4.7      2.023      5.255
REMARK  11 active torsions:
REMARK  status: ('A' for Active; 'I' for Inactive)
REMARK    1  A    between atoms: C3_3  and  C2_2 
REMARK    2  A    between atoms: C4_4  and  C3_3 
REMARK    3  A    between atoms: C5_5  and  C4_4 
REMARK    4  A    between atoms: C6_6  and  C5_5 
REMARK    5  A    between atoms: C7_7  and  C6_6 
REMARK    6  A    between atoms: C8_8  and  C7_7 
REMARK    7  A    between atoms: C9_9  and  C8_8 
REMARK    8  A    between atoms: C10_10  and  C9_9 
REMARK    9  A    between atoms: C11_12  and  C10_10 
REMARK   10  A    between atoms: C11_12  and  C12_13 
REMARK       I    between atoms: C12_13  and  N1_15 
REMARK   11  A    between atoms: C13_16  and  N1_15 
ROOT
ATOM      1  C10 OHN d          43.771  22.032  11.484  0.00  0.00     0.135 C 
ATOM      2  O1  OHN d          43.591  22.178  12.681  0.00  0.00    -0.297 OA
ENDROOT
BRANCH   1   3
ATOM      3  C11 OHN d          43.730  20.683  10.846  0.00  0.00     0.181 C 
BRANCH   3   4
ATOM      4  C12 OHN d          42.352  20.087  10.964  0.00  0.00     0.225 C 
ATOM      5  N1  OHN d          41.321  20.882  11.220  0.00  0.00    -0.347 N 
ATOM      6  H19 OHN d          41.436  21.875  11.362  0.00  0.00     0.163 HD
ATOM      7  O2  OHN d          42.241  18.892  10.825  0.00  0.00    -0.273 OA
BRANCH   5   8
ATOM      8  C13 OHN d          40.034  20.251  11.284  0.00  0.00     0.186 C 
ATOM      9  C14 OHN d          39.269  20.484  12.585  0.00  0.00     0.062 C 
ATOM     10  C15 OHN d          37.790  20.698  12.219  0.00  0.00     0.181 C 
ATOM     11  O4  OHN d          37.793  21.056  10.850  0.00  0.00    -0.320 OA
ATOM     12  C16 OHN d          39.081  20.801  10.295  0.00  0.00     0.281 C 
ATOM     13  O3  OHN d          39.344  21.001   9.139  0.00  0.00    -0.263 OA
ENDBRANCH   5   8
ENDBRANCH   3   4
ENDBRANCH   1   3
BRANCH   1  14
ATOM     14  C9  OHN d          44.100  23.206  10.620  0.00  0.00     0.079 C 
BRANCH  14  15
ATOM     15  C8  OHN d          43.036  24.276  10.680  0.00  0.00     0.007 C 
BRANCH  15  16
ATOM     16  C7  OHN d          43.800  25.586  10.568  0.00  0.00     0.000 C 
BRANCH  16  17
ATOM     17  C6  OHN d          43.066  26.691  11.336  0.00  0.00     0.000 C 
BRANCH  17  18
ATOM     18  C5  OHN d          41.949  26.054  12.148  0.00  0.00     0.000 C 
BRANCH  18  19
ATOM     19  C4  OHN d          40.991  27.123  12.625  0.00  0.00     0.000 C 
BRANCH  19  20
ATOM     20  C3  OHN d          39.563  26.625  12.513  0.00  0.00    -0.000 C 
BRANCH  20  21
ATOM     21  C2  OHN d          38.743  27.617  11.719  0.00  0.00    -0.005 C 
ATOM     22  C1  OHN d          37.455  26.936  11.348  0.00  0.00     0.005 C 
ENDBRANCH  20  21
ENDBRANCH  19  20
ENDBRANCH  18  19
ENDBRANCH  17  18
ENDBRANCH  16  17
ENDBRANCH  15  16
ENDBRANCH  14  15
ENDBRANCH   1  14
TORSDOF 11
ENDMDL
MODEL 18
REMARK VINA RESULT:      -4.7      2.010      4.526
REMARK  11 active torsions:
REMARK  status: ('A' for Active; 'I' for Inactive)
REMARK    1  A    between atoms: C3_3  and  C2_2 
REMARK    2  A    between atoms: C4_4  and  C3_3 
REMARK    3  A    between atoms: C5_5  and  C4_4 
REMARK    4  A    between atoms: C6_6  and  C5_5 
REMARK    5  A    between atoms: C7_7  and  C6_6 
REMARK    6  A    between atoms: C8_8  and  C7_7 
REMARK    7  A    between atoms: C9_9  and  C8_8 
REMARK    8  A    between atoms: C10_10  and  C9_9 
REMARK    9  A    between atoms: C11_12  and  C10_10 
REMARK   10  A    between atoms: C11_12  and  C12_13 
REMARK       I    between atoms: C12_13  and  N1_15 
REMARK   11  A    between atoms: C13_16  and  N1_15 
ROOT
ATOM      1  C10 OHN d          39.931  26.466  13.094  0.00  0.00     0.135 C 
ATOM      2  O1  OHN d          40.090  26.007  14.212  0.00  0.00    -0.297 OA
ENDROOT
BRANCH   1   3
ATOM      3  C11 OHN d          40.957  27.340  12.454  0.00  0.00     0.181 C 
BRANCH   3   4
ATOM      4  C12 OHN d          42.248  26.586  12.267  0.00  0.00     0.225 C 
ATOM      5  N1  OHN d          42.209  25.275  12.065  0.00  0.00    -0.347 N 
ATOM      6  H19 OHN d          41.339  24.763  12.055  0.00  0.00     0.163 HD
ATOM      7  O2  OHN d          43.280  27.213  12.316  0.00  0.00    -0.273 OA
BRANCH   5   8
ATOM      8  C13 OHN d          43.472  24.628  11.860  0.00  0.00     0.186 C 
ATOM      9  C14 OHN d          43.675  23.346  12.665  0.00  0.00     0.062 C 
ATOM     10  C15 OHN d          44.390  22.335  11.752  0.00  0.00     0.181 C 
ATOM     11  O4  OHN d          44.162  22.798  10.433  0.00  0.00    -0.320 OA
ATOM     12  C16 OHN d          43.636  24.121  10.479  0.00  0.00     0.281 C 
ATOM     13  O3  OHN d          43.373  24.752   9.491  0.00  0.00    -0.263 OA
ENDBRANCH   5   8
ENDBRANCH   3   4
ENDBRANCH   1   3
BRANCH   1  14
ATOM     14  C9  OHN d          38.661  26.213  12.346  0.00  0.00     0.079 C 
BRANCH  14  15
ATOM     15  C8  OHN d          38.191  27.433  11.590  0.00  0.00     0.007 C 
BRANCH  15  16
ATOM     16  C7  OHN d          36.981  26.956  10.803  0.00  0.00     0.000 C 
BRANCH  16  17
ATOM     17  C6  OHN d          36.507  25.599  11.335  0.00  0.00     0.000 C 
BRANCH  17  18
ATOM     18  C5  OHN d          35.474  25.036  10.371  0.00  0.00     0.000 C 
BRANCH  18  19
ATOM     19  C4  OHN d          35.865  23.631   9.968  0.00  0.00     0.000 C 
BRANCH  19  20
ATOM     20  C3  OHN d          36.788  23.031  11.011  0.00  0.00    -0.000 C 
BRANCH  20  21
ATOM     21  C2  OHN d          37.722  22.043  10.350  0.00  0.00    -0.005 C 
ATOM     22  C1  OHN d          37.873  20.876  11.286  0.00  0.00     0.005 C 
ENDBRANCH  20  21
ENDBRANCH  19  20
ENDBRANCH  18  19
ENDBRANCH  17  18
ENDBRANCH  16  17
ENDBRANCH  15  16
ENDBRANCH  14  15
ENDBRANCH   1  14
TORSDOF 11
ENDMDL
MODEL 19
REMARK VINA RESULT:      -4.6      1.987      4.555
REMARK  11 active torsions:
REMARK  status: ('A' for Active; 'I' for Inactive)
REMARK    1  A    between atoms: C3_3  and  C2_2 
REMARK    2  A    between atoms: C4_4  and  C3_3 
REMARK    3  A    between atoms: C5_5  and  C4_4 
REMARK    4  A    between atoms: C6_6  and  C5_5 
REMARK    5  A    between atoms: C7_7  and  C6_6 
REMARK    6  A    between atoms: C8_8  and  C7_7 
REMARK    7  A    between atoms: C9_9  and  C8_8 
REMARK    8  A    between atoms: C10_10  and  C9_9 
REMARK    9  A    between atoms: C11_12  and  C10_10 
REMARK   10  A    between atoms: C11_12  and  C12_13 
REMARK       I    between atoms: C12_13  and  N1_15 
REMARK   11  A    between atoms: C13_16  and  N1_15 
ROOT
ATOM      1  C10 OHN d          36.620  23.879  11.248  0.00  0.00     0.135 C 
ATOM      2  O1  OHN d          35.698  23.934  10.452  0.00  0.00    -0.297 OA
ENDROOT
BRANCH   1   3
ATOM      3  C11 OHN d          37.127  22.575  11.769  0.00  0.00     0.181 C 
BRANCH   3   4
ATOM      4  C12 OHN d          38.363  22.154  11.017  0.00  0.00     0.225 C 
ATOM      5  N1  OHN d          39.546  22.251  11.609  0.00  0.00    -0.347 N 
ATOM      6  H19 OHN d          39.646  22.621  12.543  0.00  0.00     0.163 HD
ATOM      7  O2  OHN d          38.224  21.744   9.889  0.00  0.00    -0.273 OA
BRANCH   5   8
ATOM      8  C13 OHN d          40.675  21.799  10.849  0.00  0.00     0.186 C 
ATOM      9  C14 OHN d          41.901  22.706  10.918  0.00  0.00     0.062 C 
ATOM     10  C15 OHN d          43.141  21.800  11.004  0.00  0.00     0.181 C 
ATOM     11  O4  OHN d          42.657  20.546  11.448  0.00  0.00    -0.320 OA
ATOM     12  C16 OHN d          41.235  20.528  11.361  0.00  0.00     0.281 C 
ATOM     13  O3  OHN d          40.576  19.569  11.661  0.00  0.00    -0.263 OA
ENDBRANCH   5   8
ENDBRANCH   3   4
ENDBRANCH   1   3
BRANCH   1  14
ATOM     14  C9  OHN d          37.237  25.133  11.779  0.00  0.00     0.079 C 
BRANCH  14  15
ATOM     15  C8  OHN d          36.618  26.372  11.180  0.00  0.00     0.007 C 
BRANCH  15  16
ATOM     16  C7  OHN d          37.749  27.387  11.137  0.00  0.00     0.000 C 
BRANCH  16  17
ATOM     17  C6  OHN d          38.839  27.004  12.145  0.00  0.00     0.000 C 
BRANCH  17  18
ATOM     18  C5  OHN d          39.502  28.278  12.646  0.00  0.00     0.000 C 
BRANCH  18  19
ATOM     19  C4  OHN d          40.919  27.978  13.083  0.00  0.00     0.000 C 
BRANCH  19  20
ATOM     20  C3  OHN d          41.450  26.774  12.328  0.00  0.00    -0.000 C 
BRANCH  20  21
ATOM     21  C2  OHN d          42.956  26.856  12.240  0.00  0.00    -0.005 C 
ATOM     22  C1  OHN d          43.348  26.413  10.858  0.00  0.00     0.005 C 
ENDBRANCH  20  21
ENDBRANCH  19  20
ENDBRANCH  18  19
ENDBRANCH  17  18
ENDBRANCH  16  17
ENDBRANCH  15  16
ENDBRANCH  14  15
ENDBRANCH   1  14
TORSDOF 11
ENDMDL
MODEL 20
REMARK VINA RESULT:      -4.6      2.468      3.506
REMARK  11 active torsions:
REMARK  status: ('A' for Active; 'I' for Inactive)
REMARK    1  A    between atoms: C3_3  and  C2_2 
REMARK    2  A    between atoms: C4_4  and  C3_3 
REMARK    3  A    between atoms: C5_5  and  C4_4 
REMARK    4  A    between atoms: C6_6  and  C5_5 
REMARK    5  A    between atoms: C7_7  and  C6_6 
REMARK    6  A    between atoms: C8_8  and  C7_7 
REMARK    7  A    between atoms: C9_9  and  C8_8 
REMARK    8  A    between atoms: C10_10  and  C9_9 
REMARK    9  A    between atoms: C11_12  and  C10_10 
REMARK   10  A    between atoms: C11_12  and  C12_13 
REMARK       I    between atoms: C12_13  and  N1_15 
REMARK   11  A    between atoms: C13_16  and  N1_15 
ROOT
ATOM      1  C10 OHN d          43.048  19.798  11.489  0.00  0.00     0.135 C 
ATOM      2  O1  OHN d          43.265  20.115  12.646  0.00  0.00    -0.297 OA
ENDROOT
BRANCH   1   3
ATOM      3  C11 OHN d          44.053  20.037  10.411  0.00  0.00     0.181 C 
BRANCH   3   4
ATOM      4  C12 OHN d          44.534  21.465  10.449  0.00  0.00     0.225 C 
ATOM      5  N1  OHN d          43.761  22.395  10.995  0.00  0.00    -0.347 N 
ATOM      6  H19 OHN d          42.848  22.178  11.367  0.00  0.00     0.163 HD
ATOM      7  O2  OHN d          45.616  21.708   9.969  0.00  0.00    -0.273 OA
BRANCH   5   8
ATOM      8  C13 OHN d          44.298  23.725  11.029  0.00  0.00     0.186 C 
ATOM      9  C14 OHN d          43.544  24.742  10.176  0.00  0.00     0.062 C 
ATOM     10  C15 OHN d          43.485  26.058  10.970  0.00  0.00     0.181 C 
ATOM     11  O4  OHN d          43.720  25.690  12.318  0.00  0.00    -0.320 OA
ATOM     12  C16 OHN d          44.193  24.347  12.368  0.00  0.00     0.281 C 
ATOM     13  O3  OHN d          44.488  23.798  13.395  0.00  0.00    -0.263 OA
ENDBRANCH   5   8
ENDBRANCH   3   4
ENDBRANCH   1   3
BRANCH   1  14
ATOM     14  C9  OHN d          41.731  19.208  11.100  0.00  0.00     0.079 C 
BRANCH  14  15
ATOM     15  C8  OHN d          40.583  20.153  11.358  0.00  0.00     0.007 C 
BRANCH  15  16
ATOM     16  C7  OHN d          40.497  21.007  10.103  0.00  0.00     0.000 C 
BRANCH  16  17
ATOM     17  C6  OHN d          39.041  21.110   9.635  0.00  0.00     0.000 C 
BRANCH  17  18
ATOM     18  C5  OHN d          38.137  21.067  10.857  0.00  0.00     0.000 C 
BRANCH  18  19
ATOM     19  C4  OHN d          37.635  22.460  11.170  0.00  0.00     0.000 C 
BRANCH  19  20
ATOM     20  C3  OHN d          38.180  22.916  12.510  0.00  0.00    -0.000 C 
BRANCH  20  21
ATOM     21  C2  OHN d          39.032  24.149  12.316  0.00  0.00    -0.005 C 
ATOM     22  C1  OHN d          40.461  23.747  12.556  0.00  0.00     0.005 C 
ENDBRANCH  20  21
ENDBRANCH  19  20
ENDBRANCH  18  19
ENDBRANCH  17  18
ENDBRANCH  16  17
ENDBRANCH  15  16
ENDBRANCH  14  15
ENDBRANCH   1  14
TORSDOF 11
ENDMDL
