REMARK  4 active torsions:
REMARK  status: ('A' for Active; 'I' for Inactive)
REMARK    1  A    between atoms: O2_2  and  C7_12 
REMARK    2  A    between atoms: O4_4  and  C9_14 
REMARK    3  A    between atoms: O5_5  and  C15_20 
REMARK    4  A    between atoms: C3_8  and  C4_9 
ROOT
ATOM      1  O1  UNK     1      -0.068   0.780  -0.048  1.00  0.00    -0.309 OA
ATOM      2  O3  UNK     1      -1.727  -2.934   0.183  1.00  0.00    -0.287 OA
ATOM      3  C1  UNK     1      -2.065  -0.600   0.035  1.00  0.00     0.081 A 
ATOM      4  C2  UNK     1      -1.433   0.639  -0.043  1.00  0.00     0.095 A 
ATOM      5  C3  UNK     1       0.714  -0.362   0.037  1.00  0.00     0.090 A 
ATOM      6  C5  UNK     1      -1.239  -1.815   0.115  1.00  0.00     0.190 A 
ATOM      7  C6  UNK     1       0.224  -1.610   0.109  1.00  0.00     0.094 A 
ATOM      8  C7  UNK     1      -3.459  -0.684   0.035  1.00  0.00     0.085 A 
ATOM      9  C8  UNK     1      -2.193   1.806  -0.122  1.00  0.00     0.075 A 
ATOM     10  C9  UNK     1      -3.586   1.728  -0.122  1.00  0.00     0.071 A 
ATOM     11  C10 UNK     1      -4.218   0.485  -0.043  1.00  0.00     0.074 A 
ENDROOT
BRANCH   5  12
ATOM     12  C4  UNK     1       2.166  -0.097   0.018  1.00  0.00    -0.002 A 
ATOM     13  C12 UNK     1       2.670   1.091   0.552  1.00  0.00     0.017 A 
ATOM     14  C14 UNK     1       4.042   1.341   0.533  1.00  0.00     0.037 A 
ATOM     15  C15 UNK     1       4.915   0.404  -0.020  1.00  0.00     0.065 A 
ATOM     16  C13 UNK     1       4.415  -0.783  -0.555  1.00  0.00     0.037 A 
ATOM     17  C11 UNK     1       3.043  -1.034  -0.536  1.00  0.00     0.017 A 
BRANCH  15  18
ATOM     18  O5  UNK     1       6.253   0.649  -0.039  1.00  0.00    -0.361 OA
ATOM     19  H10 UNK     1       6.705  -0.104  -0.458  1.00  0.00     0.217 HD
ENDBRANCH  15  18
ENDBRANCH   5  12
BRANCH   8  20
ATOM     20  O2  UNK     1      -4.124  -1.870   0.109  1.00  0.00    -0.360 OA
ATOM     21  H8  UNK     1      -3.497  -2.608   0.162  1.00  0.00     0.217 HD
ENDBRANCH   8  20
BRANCH  10  22
ATOM     22  O4  UNK     1      -4.331   2.865  -0.199  1.00  0.00    -0.361 OA
ATOM     23  H9  UNK     1      -5.274   2.626  -0.187  1.00  0.00     0.217 HD
ENDBRANCH  10  22
TORSDOF 4
