@<TRIPOS>MOLECULE
apigenin.pdb
30 32 1 0 0
SMALL
NO_CHARGES


@<TRIPOS>ATOM
      1 O1         -0.0680    0.7800   -0.0480 O.3       1 UNK    0.0000
      2 O2         -4.1240   -1.8700    0.1090 O.3       1 UNK    0.0000
      3 O3         -1.7270   -2.9340    0.1830 O.2       1 UNK    0.0000
      4 O4         -4.3310    2.8650   -0.1990 O.3       1 UNK    0.0000
      5 O5          6.2530    0.6490   -0.0390 O.3       1 UNK    0.0000
      6 C1         -2.0650   -0.6000    0.0350 C.ar      1 UNK    0.0000
      7 C2         -1.4330    0.6390   -0.0430 C.ar      1 UNK    0.0000
      8 C3          0.7140   -0.3620    0.0370 C.2       1 UNK    0.0000
      9 C4          2.1660   -0.0970    0.0180 C.ar      1 UNK    0.0000
     10 C5         -1.2390   -1.8150    0.1150 C.2       1 UNK    0.0000
     11 C6          0.2240   -1.6100    0.1090 C.2       1 UNK    0.0000
     12 C7         -3.4590   -0.6840    0.0350 C.ar      1 UNK    0.0000
     13 C8         -2.1930    1.8060   -0.1220 C.ar      1 UNK    0.0000
     14 C9         -3.5860    1.7280   -0.1220 C.ar      1 UNK    0.0000
     15 C10        -4.2180    0.4850   -0.0430 C.ar      1 UNK    0.0000
     16 C11         3.0430   -1.0340   -0.5360 C.ar      1 UNK    0.0000
     17 C12         2.6700    1.0910    0.5520 C.ar      1 UNK    0.0000
     18 C13         4.4150   -0.7830   -0.5550 C.ar      1 UNK    0.0000
     19 C14         4.0420    1.3410    0.5330 C.ar      1 UNK    0.0000
     20 C15         4.9150    0.4040   -0.0200 C.ar      1 UNK    0.0000
     21 H1          0.8370   -2.5000    0.1880 H         1 UNK    0.0000
     22 H2         -1.7040    2.7750   -0.1830 H         1 UNK    0.0000
     23 H3         -5.3030    0.4230   -0.0430 H         1 UNK    0.0000
     24 H4          2.6920   -1.9600   -0.9830 H         1 UNK    0.0000
     25 H5          2.0140    1.8350    0.9970 H         1 UNK    0.0000
     26 H6          5.0840   -1.5190   -0.9940 H         1 UNK    0.0000
     27 H7          4.4260    2.2680    0.9530 H         1 UNK    0.0000
     28 H8         -3.4970   -2.6080    0.1620 H         1 UNK    0.0000
     29 H9         -5.2740    2.6260   -0.1870 H         1 UNK    0.0000
     30 H10         6.7050   -0.1040   -0.4580 H         1 UNK    0.0000
@<TRIPOS>BOND
     1    1    7 1
     2    1    8 1
     3    2   12 1
     4    2   28 1
     5    3   10 2
     6    4   14 1
     7    4   29 1
     8    5   20 1
     9    5   30 1
    10    6    7 ar
    11    6   10 1
    12    6   12 ar
    13    7   13 ar
    14    8    9 1
    15    8   11 2
    16    9   16 ar
    17    9   17 ar
    18   10   11 2
    19   11   21 1
    20   12   15 ar
    21   13   14 ar
    22   13   22 1
    23   14   15 ar
    24   15   23 1
    25   16   18 ar
    26   16   24 1
    27   17   19 ar
    28   17   25 1
    29   18   20 ar
    30   18   26 1
    31   19   20 ar
    32   19   27 1
@<TRIPOS>SUBSTRUCTURE
     1 UNK     1 RESIDUE           4 A     UNK     0 ROOT
