MODEL 1
REMARK VINA RESULT:      -7.2      0.000      0.000
REMARK  10 active torsions:
REMARK  status: ('A' for Active; 'I' for Inactive)
REMARK    1  A    between atoms: O2_2  and  C4_15 
REMARK    2  A    between atoms: O2_2  and  C7_18 
REMARK    3  A    between atoms: O3_3  and  C1_12 
REMARK    4  A    between atoms: O4_4  and  C2_13 
REMARK    5  A    between atoms: O5_5  and  C3_14 
REMARK    6  A    between atoms: O6_6  and  C6_17 
REMARK    7  A    between atoms: O9_9  and  C9_20 
REMARK    8  A    between atoms: O10_10  and  C12_23 
REMARK    9  A    between atoms: C5_16  and  C6_17 
REMARK   10  A    between atoms: C14_25  and  C16_27 
ROOT
ATOM      1  O8  UNK     1      44.103   2.236   8.130  1.00  0.00    -0.309 OA
ATOM      2  O11 UNK     1      42.556   5.450  10.100  1.00  0.00    -0.287 OA
ATOM      3  C7  UNK     1      40.644   1.121   8.399  1.00  0.00     0.110 A 
ATOM      4  C8  UNK     1      42.005   1.154   8.092  1.00  0.00     0.078 A 
ATOM      5  C9  UNK     1      40.052   2.191   9.072  1.00  0.00     0.134 A 
ATOM      6  C10 UNK     1      42.772   2.261   8.459  1.00  0.00     0.096 A 
ATOM      7  C11 UNK     1      42.178   3.328   9.130  1.00  0.00     0.084 A 
ATOM      8  C12 UNK     1      40.816   3.298   9.440  1.00  0.00     0.118 A 
ATOM      9  C13 UNK     1      43.010   4.480   9.507  1.00  0.00     0.190 A 
ATOM     10  C14 UNK     1      44.889   3.325   8.476  1.00  0.00     0.090 A 
ATOM     11  C15 UNK     1      44.436   4.408   9.127  1.00  0.00     0.094 A 
ENDROOT
BRANCH   3  12
ATOM     12  O2  UNK     1      39.903   0.035   8.036  1.00  0.00    -0.315 OA
BRANCH  12  13
ATOM     13  C4  UNK     1      39.656  -0.939   9.051  1.00  0.00     0.299 C 
ATOM     14  O1  UNK     1      39.469  -0.289  10.306  1.00  0.00    -0.340 OA
ATOM     15  C5  UNK     1      39.195  -1.209  11.356  1.00  0.00     0.253 C 
ATOM     16  C3  UNK     1      40.367  -2.159  11.571  1.00  0.00     0.189 C 
ATOM     17  C1  UNK     1      40.737  -2.867  10.267  1.00  0.00     0.183 C 
ATOM     18  C2  UNK     1      40.863  -1.875   9.111  1.00  0.00     0.205 C 
BRANCH  15  19
ATOM     19  C6  UNK     1      38.999  -0.325  12.545  1.00  0.00     0.172 C 
ATOM     20  O7  UNK     1      38.945  -0.709  13.704  1.00  0.00    -0.648 OA
BRANCH  19  21
ATOM     21  O6  UNK     1      38.883   0.970  12.164  1.00  0.00    -0.774 OA
ATOM     22  H10 UNK     1      38.948   1.073  11.190  1.00  0.00     0.167 HD
ENDBRANCH  19  21
ENDBRANCH  15  19
BRANCH  16  23
ATOM     23  O5  UNK     1      39.992  -3.136  12.541  1.00  0.00    -0.390 OA
ATOM     24  H8  UNK     1      40.522  -2.984  13.343  1.00  0.00     0.210 HD
ENDBRANCH  16  23
BRANCH  17  25
ATOM     25  O3  UNK     1      41.986  -3.531  10.464  1.00  0.00    -0.390 OA
ATOM     26  H6  UNK     1      41.846  -4.239  11.114  1.00  0.00     0.210 HD
ENDBRANCH  17  25
BRANCH  18  27
ATOM     27  O4  UNK     1      40.935  -2.591   7.878  1.00  0.00    -0.388 OA
ATOM     28  H7  UNK     1      41.358  -3.447   8.059  1.00  0.00     0.210 HD
ENDBRANCH  18  27
ENDBRANCH  12  13
ENDBRANCH   3  12
BRANCH   5  29
ATOM     29  O9  UNK     1      38.720   2.150   9.369  1.00  0.00    -0.356 OA
ATOM     30  H12 UNK     1      38.313   1.428   8.859  1.00  0.00     0.218 HD
ENDBRANCH   5  29
BRANCH   8  31
ATOM     31  O10 UNK     1      40.202   4.323  10.095  1.00  0.00    -0.357 OA
ATOM     32  H13 UNK     1      40.844   5.002  10.352  1.00  0.00     0.217 HD
ENDBRANCH   8  31
BRANCH  10  33
ATOM     33  C16 UNK     1      46.306   3.193   8.079  1.00  0.00    -0.002 A 
ATOM     34  C17 UNK     1      46.668   2.317   7.053  1.00  0.00     0.014 A 
ATOM     35  C19 UNK     1      48.006   2.193   6.678  1.00  0.00     0.001 A 
ATOM     36  C21 UNK     1      48.986   2.944   7.327  1.00  0.00     0.000 A 
ATOM     37  C20 UNK     1      48.627   3.819   8.353  1.00  0.00     0.001 A 
ATOM     38  C18 UNK     1      47.289   3.943   8.728  1.00  0.00     0.014 A 
ENDBRANCH  10  33
TORSDOF 10
ENDMDL
MODEL 2
REMARK VINA RESULT:      -7.2      5.196      9.774
REMARK  10 active torsions:
REMARK  status: ('A' for Active; 'I' for Inactive)
REMARK    1  A    between atoms: O2_2  and  C4_15 
REMARK    2  A    between atoms: O2_2  and  C7_18 
REMARK    3  A    between atoms: O3_3  and  C1_12 
REMARK    4  A    between atoms: O4_4  and  C2_13 
REMARK    5  A    between atoms: O5_5  and  C3_14 
REMARK    6  A    between atoms: O6_6  and  C6_17 
REMARK    7  A    between atoms: O9_9  and  C9_20 
REMARK    8  A    between atoms: O10_10  and  C12_23 
REMARK    9  A    between atoms: C5_16  and  C6_17 
REMARK   10  A    between atoms: C14_25  and  C16_27 
ROOT
ATOM      1  O8  UNK     1      37.750  -5.628   5.666  1.00  0.00    -0.309 OA
ATOM      2  O11 UNK     1      37.066  -7.132   9.390  1.00  0.00    -0.287 OA
ATOM      3  C7  UNK     1      37.599  -2.494   7.519  1.00  0.00     0.110 A 
ATOM      4  C8  UNK     1      37.726  -3.410   6.474  1.00  0.00     0.078 A 
ATOM      5  C9  UNK     1      37.365  -2.944   8.820  1.00  0.00     0.134 A 
ATOM      6  C10 UNK     1      37.618  -4.777   6.733  1.00  0.00     0.096 A 
ATOM      7  C11 UNK     1      37.384  -5.223   8.032  1.00  0.00     0.084 A 
ATOM      8  C12 UNK     1      37.257  -4.310   9.081  1.00  0.00     0.118 A 
ATOM      9  C13 UNK     1      37.273  -6.670   8.276  1.00  0.00     0.190 A 
ATOM     10  C14 UNK     1      37.655  -6.993   5.894  1.00  0.00     0.090 A 
ATOM     11  C15 UNK     1      37.427  -7.544   7.096  1.00  0.00     0.094 A 
ENDROOT
BRANCH   3  12
ATOM     12  O2  UNK     1      37.706  -1.160   7.256  1.00  0.00    -0.315 OA
BRANCH  12  13
ATOM     13  C4  UNK     1      39.025  -0.612   7.262  1.00  0.00     0.299 C 
ATOM     14  O1  UNK     1      39.781  -1.188   8.324  1.00  0.00    -0.340 OA
ATOM     15  C5  UNK     1      41.116  -0.695   8.368  1.00  0.00     0.253 C 
ATOM     16  C3  UNK     1      41.137   0.805   8.633  1.00  0.00     0.189 C 
ATOM     17  C1  UNK     1      40.282   1.549   7.607  1.00  0.00     0.183 C 
ATOM     18  C2  UNK     1      38.906   0.901   7.453  1.00  0.00     0.205 C 
BRANCH  15  19
ATOM     19  C6  UNK     1      41.723  -1.449   9.506  1.00  0.00     0.172 C 
ATOM     20  O7  UNK     1      41.988  -0.973  10.600  1.00  0.00    -0.648 OA
BRANCH  19  21
ATOM     21  O6  UNK     1      41.945  -2.740   9.161  1.00  0.00    -0.774 OA
ATOM     22  H10 UNK     1      41.220  -3.330   9.458  1.00  0.00     0.167 HD
ENDBRANCH  19  21
ENDBRANCH  15  19
BRANCH  16  23
ATOM     23  O5  UNK     1      42.483   1.267   8.539  1.00  0.00    -0.390 OA
ATOM     24  H8  UNK     1      42.721   1.317   7.598  1.00  0.00     0.210 HD
ENDBRANCH  16  23
BRANCH  17  25
ATOM     25  O3  UNK     1      40.126   2.897   8.055  1.00  0.00    -0.390 OA
ATOM     26  H6  UNK     1      40.996   3.326   8.008  1.00  0.00     0.210 HD
ENDBRANCH  17  25
BRANCH  18  27
ATOM     27  O4  UNK     1      38.250   1.446   6.308  1.00  0.00    -0.388 OA
ATOM     28  H7  UNK     1      38.288   0.780   5.602  1.00  0.00     0.210 HD
ENDBRANCH  18  27
ENDBRANCH  12  13
ENDBRANCH   3  12
BRANCH   5  29
ATOM     29  O9  UNK     1      37.242  -2.041   9.836  1.00  0.00    -0.356 OA
ATOM     30  H12 UNK     1      37.127  -2.531  10.670  1.00  0.00     0.218 HD
ENDBRANCH   5  29
BRANCH   8  31
ATOM     31  O10 UNK     1      37.028  -4.710  10.364  1.00  0.00    -0.357 OA
ATOM     32  H13 UNK     1      36.422  -4.100  10.811  1.00  0.00     0.217 HD
ENDBRANCH   8  31
BRANCH  10  33
ATOM     33  C16 UNK     1      37.808  -7.817   4.677  1.00  0.00    -0.002 A 
ATOM     34  C17 UNK     1      39.020  -8.459   4.413  1.00  0.00     0.014 A 
ATOM     35  C19 UNK     1      39.164  -9.238   3.264  1.00  0.00     0.001 A 
ATOM     36  C21 UNK     1      38.097  -9.377   2.377  1.00  0.00     0.000 A 
ATOM     37  C20 UNK     1      36.885  -8.737   2.637  1.00  0.00     0.001 A 
ATOM     38  C18 UNK     1      36.742  -7.958   3.786  1.00  0.00     0.014 A 
ENDBRANCH  10  33
TORSDOF 10
ENDMDL
MODEL 3
REMARK VINA RESULT:      -7.0      1.709      2.937
REMARK  10 active torsions:
REMARK  status: ('A' for Active; 'I' for Inactive)
REMARK    1  A    between atoms: O2_2  and  C4_15 
REMARK    2  A    between atoms: O2_2  and  C7_18 
REMARK    3  A    between atoms: O3_3  and  C1_12 
REMARK    4  A    between atoms: O4_4  and  C2_13 
REMARK    5  A    between atoms: O5_5  and  C3_14 
REMARK    6  A    between atoms: O6_6  and  C6_17 
REMARK    7  A    between atoms: O9_9  and  C9_20 
REMARK    8  A    between atoms: O10_10  and  C12_23 
REMARK    9  A    between atoms: C5_16  and  C6_17 
REMARK   10  A    between atoms: C14_25  and  C16_27 
ROOT
ATOM      1  O8  UNK     1      44.528   3.002   8.500  1.00  0.00    -0.309 OA
ATOM      2  O11 UNK     1      44.477   4.129  12.415  1.00  0.00    -0.287 OA
ATOM      3  C7  UNK     1      40.964   2.610   9.153  1.00  0.00     0.110 A 
ATOM      4  C8  UNK     1      42.197   2.622   8.501  1.00  0.00     0.078 A 
ATOM      5  C9  UNK     1      40.877   2.987  10.494  1.00  0.00     0.134 A 
ATOM      6  C10 UNK     1      43.345   3.011   9.193  1.00  0.00     0.096 A 
ATOM      7  C11 UNK     1      43.255   3.386  10.533  1.00  0.00     0.084 A 
ATOM      8  C12 UNK     1      42.022   3.376  11.189  1.00  0.00     0.118 A 
ATOM      9  C13 UNK     1      44.481   3.790  11.239  1.00  0.00     0.190 A 
ATOM     10  C14 UNK     1      45.683   3.391   9.160  1.00  0.00     0.090 A 
ATOM     11  C15 UNK     1      45.727   3.767  10.448  1.00  0.00     0.094 A 
ENDROOT
BRANCH   3  12
ATOM     12  O2  UNK     1      39.848   2.228   8.467  1.00  0.00    -0.315 OA
BRANCH  12  13
ATOM     13  C4  UNK     1      39.438   0.869   8.620  1.00  0.00     0.299 C 
ATOM     14  O1  UNK     1      40.512   0.100   9.155  1.00  0.00    -0.340 OA
ATOM     15  C5  UNK     1      40.155  -1.264   9.352  1.00  0.00     0.253 C 
ATOM     16  C3  UNK     1      39.806  -1.935   8.029  1.00  0.00     0.189 C 
ATOM     17  C1  UNK     1      38.714  -1.154   7.296  1.00  0.00     0.183 C 
ATOM     18  C2  UNK     1      39.038   0.339   7.242  1.00  0.00     0.205 C 
BRANCH  15  19
ATOM     19  C6  UNK     1      41.390  -1.860   9.944  1.00  0.00     0.172 C 
ATOM     20  O7  UNK     1      41.810  -1.632  11.069  1.00  0.00    -0.648 OA
BRANCH  19  21
ATOM     21  O6  UNK     1      41.990  -2.694   9.060  1.00  0.00    -0.774 OA
ATOM     22  H10 UNK     1      42.951  -2.511   8.977  1.00  0.00     0.167 HD
ENDBRANCH  19  21
ENDBRANCH  15  19
BRANCH  16  23
ATOM     23  O5  UNK     1      39.334  -3.255   8.295  1.00  0.00    -0.390 OA
ATOM     24  H8  UNK     1      39.130  -3.680   7.445  1.00  0.00     0.210 HD
ENDBRANCH  16  23
BRANCH  17  25
ATOM     25  O3  UNK     1      38.618  -1.669   5.967  1.00  0.00    -0.390 OA
ATOM     26  H6  UNK     1      38.028  -2.441   5.991  1.00  0.00     0.210 HD
ENDBRANCH  17  25
BRANCH  18  27
ATOM     27  O4  UNK     1      37.886   1.059   6.803  1.00  0.00    -0.388 OA
ATOM     28  H7  UNK     1      38.155   1.619   6.057  1.00  0.00     0.210 HD
ENDBRANCH  18  27
ENDBRANCH  12  13
ENDBRANCH   3  12
BRANCH   5  29
ATOM     29  O9  UNK     1      39.667   2.973  11.125  1.00  0.00    -0.356 OA
ATOM     30  H12 UNK     1      39.091   2.333  10.671  1.00  0.00     0.218 HD
ENDBRANCH   5  29
BRANCH   8  31
ATOM     31  O10 UNK     1      41.897   3.737  12.498  1.00  0.00    -0.357 OA
ATOM     32  H13 UNK     1      42.260   4.624  12.646  1.00  0.00     0.217 HD
ENDBRANCH   8  31
BRANCH  10  33
ATOM     33  C16 UNK     1      46.899   3.339   8.323  1.00  0.00    -0.002 A 
ATOM     34  C17 UNK     1      48.047   4.036   8.709  1.00  0.00     0.014 A 
ATOM     35  C19 UNK     1      49.195   3.987   7.919  1.00  0.00     0.001 A 
ATOM     36  C21 UNK     1      49.201   3.240   6.741  1.00  0.00     0.000 A 
ATOM     37  C20 UNK     1      48.056   2.543   6.352  1.00  0.00     0.001 A 
ATOM     38  C18 UNK     1      46.908   2.593   7.143  1.00  0.00     0.014 A 
ENDBRANCH  10  33
TORSDOF 10
ENDMDL
MODEL 4
REMARK VINA RESULT:      -7.0      2.299      3.127
REMARK  10 active torsions:
REMARK  status: ('A' for Active; 'I' for Inactive)
REMARK    1  A    between atoms: O2_2  and  C4_15 
REMARK    2  A    between atoms: O2_2  and  C7_18 
REMARK    3  A    between atoms: O3_3  and  C1_12 
REMARK    4  A    between atoms: O4_4  and  C2_13 
REMARK    5  A    between atoms: O5_5  and  C3_14 
REMARK    6  A    between atoms: O6_6  and  C6_17 
REMARK    7  A    between atoms: O9_9  and  C9_20 
REMARK    8  A    between atoms: O10_10  and  C12_23 
REMARK    9  A    between atoms: C5_16  and  C6_17 
REMARK   10  A    between atoms: C14_25  and  C16_27 
ROOT
ATOM      1  O8  UNK     1      43.882   1.627   8.600  1.00  0.00    -0.309 OA
ATOM      2  O11 UNK     1      42.008   4.964   9.998  1.00  0.00    -0.287 OA
ATOM      3  C7  UNK     1      40.643   0.161   9.398  1.00  0.00     0.110 A 
ATOM      4  C8  UNK     1      41.963   0.302   8.971  1.00  0.00     0.078 A 
ATOM      5  C9  UNK     1      39.943   1.266   9.887  1.00  0.00     0.134 A 
ATOM      6  C10 UNK     1      42.583   1.551   9.033  1.00  0.00     0.096 A 
ATOM      7  C11 UNK     1      41.882   2.652   9.522  1.00  0.00     0.084 A 
ATOM      8  C12 UNK     1      40.560   2.515   9.950  1.00  0.00     0.118 A 
ATOM      9  C13 UNK     1      42.561   3.956   9.578  1.00  0.00     0.190 A 
ATOM     10  C14 UNK     1      44.522   2.857   8.644  1.00  0.00     0.090 A 
ATOM     11  C15 UNK     1      43.957   3.987   9.097  1.00  0.00     0.094 A 
ENDROOT
BRANCH   3  12
ATOM     12  O2  UNK     1      40.046  -1.063   9.333  1.00  0.00    -0.315 OA
BRANCH  12  13
ATOM     13  C4  UNK     1      39.090  -1.254   8.289  1.00  0.00     0.299 C 
ATOM     14  O1  UNK     1      37.774  -1.269   8.839  1.00  0.00    -0.340 OA
ATOM     15  C5  UNK     1      36.773  -1.434   7.841  1.00  0.00     0.253 C 
ATOM     16  C3  UNK     1      36.923  -2.774   7.130  1.00  0.00     0.189 C 
ATOM     17  C1  UNK     1      38.334  -2.930   6.561  1.00  0.00     0.183 C 
ATOM     18  C2  UNK     1      39.397  -2.586   7.605  1.00  0.00     0.205 C 
BRANCH  15  19
ATOM     19  C6  UNK     1      35.500  -1.383   8.621  1.00  0.00     0.172 C 
ATOM     20  O7  UNK     1      34.380  -1.514   8.148  1.00  0.00    -0.648 OA
BRANCH  19  21
ATOM     21  O6  UNK     1      35.752  -1.166   9.935  1.00  0.00    -0.774 OA
ATOM     22  H10 UNK     1      35.420  -1.898  10.498  1.00  0.00     0.167 HD
ENDBRANCH  19  21
ENDBRANCH  15  19
BRANCH  16  23
ATOM     23  O5  UNK     1      35.981  -2.832   6.061  1.00  0.00    -0.390 OA
ATOM     24  H8  UNK     1      35.170  -2.377   6.347  1.00  0.00     0.210 HD
ENDBRANCH  16  23
BRANCH  17  25
ATOM     25  O3  UNK     1      38.495  -4.287   6.146  1.00  0.00    -0.390 OA
ATOM     26  H6  UNK     1      38.954  -4.762   6.859  1.00  0.00     0.210 HD
ENDBRANCH  17  25
BRANCH  18  27
ATOM     27  O4  UNK     1      40.670  -2.478   6.966  1.00  0.00    -0.388 OA
ATOM     28  H7  UNK     1      40.607  -2.927   6.107  1.00  0.00     0.210 HD
ENDBRANCH  18  27
ENDBRANCH  12  13
ENDBRANCH   3  12
BRANCH   5  29
ATOM     29  O9  UNK     1      38.651   1.119  10.303  1.00  0.00    -0.356 OA
ATOM     30  H12 UNK     1      38.223   1.993  10.288  1.00  0.00     0.218 HD
ENDBRANCH   5  29
BRANCH   8  31
ATOM     31  O10 UNK     1      39.844   3.570  10.434  1.00  0.00    -0.357 OA
ATOM     32  H13 UNK     1      39.224   3.899   9.766  1.00  0.00     0.217 HD
ENDBRANCH   8  31
BRANCH  10  33
ATOM     33  C16 UNK     1      45.917   2.826   8.159  1.00  0.00    -0.002 A 
ATOM     34  C17 UNK     1      46.847   3.752   8.638  1.00  0.00     0.014 A 
ATOM     35  C19 UNK     1      48.164   3.721   8.181  1.00  0.00     0.001 A 
ATOM     36  C21 UNK     1      48.557   2.765   7.244  1.00  0.00     0.000 A 
ATOM     37  C20 UNK     1      47.630   1.838   6.764  1.00  0.00     0.001 A 
ATOM     38  C18 UNK     1      46.313   1.869   7.221  1.00  0.00     0.014 A 
ENDBRANCH  10  33
TORSDOF 10
ENDMDL
MODEL 5
REMARK VINA RESULT:      -7.0      1.268      2.158
REMARK  10 active torsions:
REMARK  status: ('A' for Active; 'I' for Inactive)
REMARK    1  A    between atoms: O2_2  and  C4_15 
REMARK    2  A    between atoms: O2_2  and  C7_18 
REMARK    3  A    between atoms: O3_3  and  C1_12 
REMARK    4  A    between atoms: O4_4  and  C2_13 
REMARK    5  A    between atoms: O5_5  and  C3_14 
REMARK    6  A    between atoms: O6_6  and  C6_17 
REMARK    7  A    between atoms: O9_9  and  C9_20 
REMARK    8  A    between atoms: O10_10  and  C12_23 
REMARK    9  A    between atoms: C5_16  and  C6_17 
REMARK   10  A    between atoms: C14_25  and  C16_27 
ROOT
ATOM      1  O8  UNK     1      44.117   2.404   7.965  1.00  0.00    -0.309 OA
ATOM      2  O11 UNK     1      42.672   5.383  10.339  1.00  0.00    -0.287 OA
ATOM      3  C7  UNK     1      40.616   1.397   8.065  1.00  0.00     0.110 A 
ATOM      4  C8  UNK     1      41.979   1.418   7.772  1.00  0.00     0.078 A 
ATOM      5  C9  UNK     1      40.057   2.389   8.871  1.00  0.00     0.134 A 
ATOM      6  C10 UNK     1      42.784   2.436   8.287  1.00  0.00     0.096 A 
ATOM      7  C11 UNK     1      42.224   3.425   9.093  1.00  0.00     0.084 A 
ATOM      8  C12 UNK     1      40.858   3.407   9.388  1.00  0.00     0.118 A 
ATOM      9  C13 UNK     1      43.095   4.485   9.624  1.00  0.00     0.190 A 
ATOM     10  C14 UNK     1      44.939   3.406   8.457  1.00  0.00     0.090 A 
ATOM     11  C15 UNK     1      44.520   4.408   9.246  1.00  0.00     0.094 A 
ENDROOT
BRANCH   3  12
ATOM     12  O2  UNK     1      39.838   0.399   7.556  1.00  0.00    -0.315 OA
BRANCH  12  13
ATOM     13  C4  UNK     1      39.323  -0.551   8.490  1.00  0.00     0.299 C 
ATOM     14  O1  UNK     1      40.384  -1.051   9.301  1.00  0.00    -0.340 OA
ATOM     15  C5  UNK     1      39.927  -1.988  10.270  1.00  0.00     0.253 C 
ATOM     16  C3  UNK     1      39.323  -3.217   9.602  1.00  0.00     0.189 C 
ATOM     17  C1  UNK     1      38.218  -2.815   8.625  1.00  0.00     0.183 C 
ATOM     18  C2  UNK     1      38.675  -1.687   7.699  1.00  0.00     0.205 C 
BRANCH  15  19
ATOM     19  C6  UNK     1      41.172  -2.343  11.017  1.00  0.00     0.172 C 
ATOM     20  O7  UNK     1      41.613  -1.730  11.977  1.00  0.00    -0.648 OA
BRANCH  19  21
ATOM     21  O6  UNK     1      41.754  -3.444  10.482  1.00  0.00    -0.774 OA
ATOM     22  H10 UNK     1      42.712  -3.311  10.321  1.00  0.00     0.167 HD
ENDBRANCH  19  21
ENDBRANCH  15  19
BRANCH  16  23
ATOM     23  O5  UNK     1      38.769  -4.060  10.611  1.00  0.00    -0.390 OA
ATOM     24  H8  UNK     1      39.212  -3.855  11.452  1.00  0.00     0.210 HD
ENDBRANCH  16  23
BRANCH  17  25
ATOM     25  O3  UNK     1      37.876  -3.962   7.846  1.00  0.00    -0.390 OA
ATOM     26  H6  UNK     1      36.908  -3.997   7.780  1.00  0.00     0.210 HD
ENDBRANCH  17  25
BRANCH  18  27
ATOM     27  O4  UNK     1      37.547  -1.160   7.001  1.00  0.00    -0.388 OA
ATOM     28  H7  UNK     1      37.881  -0.604   6.278  1.00  0.00     0.210 HD
ENDBRANCH  18  27
ENDBRANCH  12  13
ENDBRANCH   3  12
BRANCH   5  29
ATOM     29  O9  UNK     1      38.722   2.361   9.153  1.00  0.00    -0.356 OA
ATOM     30  H12 UNK     1      38.238   2.714   8.387  1.00  0.00     0.218 HD
ENDBRANCH   5  29
BRANCH   8  31
ATOM     31  O10 UNK     1      40.276   4.359  10.172  1.00  0.00    -0.357 OA
ATOM     32  H13 UNK     1      39.591   3.968  10.735  1.00  0.00     0.217 HD
ENDBRANCH   8  31
BRANCH  10  33
ATOM     33  C16 UNK     1      46.354   3.273   8.054  1.00  0.00    -0.002 A 
ATOM     34  C17 UNK     1      47.342   4.016   8.707  1.00  0.00     0.014 A 
ATOM     35  C19 UNK     1      48.678   3.889   8.326  1.00  0.00     0.001 A 
ATOM     36  C21 UNK     1      49.031   3.020   7.294  1.00  0.00     0.000 A 
ATOM     37  C20 UNK     1      48.047   2.278   6.641  1.00  0.00     0.001 A 
ATOM     38  C18 UNK     1      46.711   2.404   7.021  1.00  0.00     0.014 A 
ENDBRANCH  10  33
TORSDOF 10
ENDMDL
MODEL 6
REMARK VINA RESULT:      -7.0      2.785      3.517
REMARK  10 active torsions:
REMARK  status: ('A' for Active; 'I' for Inactive)
REMARK    1  A    between atoms: O2_2  and  C4_15 
REMARK    2  A    between atoms: O2_2  and  C7_18 
REMARK    3  A    between atoms: O3_3  and  C1_12 
REMARK    4  A    between atoms: O4_4  and  C2_13 
REMARK    5  A    between atoms: O5_5  and  C3_14 
REMARK    6  A    between atoms: O6_6  and  C6_17 
REMARK    7  A    between atoms: O9_9  and  C9_20 
REMARK    8  A    between atoms: O10_10  and  C12_23 
REMARK    9  A    between atoms: C5_16  and  C6_17 
REMARK   10  A    between atoms: C14_25  and  C16_27 
ROOT
ATOM      1  O8  UNK     1      43.586   0.861   8.593  1.00  0.00    -0.309 OA
ATOM      2  O11 UNK     1      41.795   4.349   9.701  1.00  0.00    -0.287 OA
ATOM      3  C7  UNK     1      40.233  -0.410   9.245  1.00  0.00     0.110 A 
ATOM      4  C8  UNK     1      41.583  -0.353   8.900  1.00  0.00     0.078 A 
ATOM      5  C9  UNK     1      39.560   0.749   9.632  1.00  0.00     0.134 A 
ATOM      6  C10 UNK     1      42.260   0.867   8.942  1.00  0.00     0.096 A 
ATOM      7  C11 UNK     1      41.585   2.023   9.330  1.00  0.00     0.084 A 
ATOM      8  C12 UNK     1      40.233   1.971   9.676  1.00  0.00     0.118 A 
ATOM      9  C13 UNK     1      42.322   3.296   9.368  1.00  0.00     0.190 A 
ATOM     10  C14 UNK     1      44.281   2.060   8.619  1.00  0.00     0.090 A 
ATOM     11  C15 UNK     1      43.746   3.237   8.979  1.00  0.00     0.094 A 
ENDROOT
BRANCH   3  12
ATOM     12  O2  UNK     1      39.581  -1.607   9.199  1.00  0.00    -0.315 OA
BRANCH  12  13
ATOM     13  C4  UNK     1      38.644  -1.785   8.136  1.00  0.00     0.299 C 
ATOM     14  O1  UNK     1      37.346  -2.026   8.675  1.00  0.00    -0.340 OA
ATOM     15  C5  UNK     1      36.362  -2.189   7.660  1.00  0.00     0.253 C 
ATOM     16  C3  UNK     1      36.665  -3.406   6.794  1.00  0.00     0.189 C 
ATOM     17  C1  UNK     1      38.078  -3.321   6.217  1.00  0.00     0.183 C 
ATOM     18  C2  UNK     1      39.103  -2.979   7.298  1.00  0.00     0.205 C 
BRANCH  15  19
ATOM     19  C6  UNK     1      35.100  -2.386   8.435  1.00  0.00     0.172 C 
ATOM     20  O7  UNK     1      34.433  -1.489   8.931  1.00  0.00    -0.648 OA
BRANCH  19  21
ATOM     21  O6  UNK     1      34.790  -3.702   8.520  1.00  0.00    -0.774 OA
ATOM     22  H10 UNK     1      33.895  -3.845   8.894  1.00  0.00     0.167 HD
ENDBRANCH  19  21
ENDBRANCH  15  19
BRANCH  16  23
ATOM     23  O5  UNK     1      35.725  -3.449   5.721  1.00  0.00    -0.390 OA
ATOM     24  H8  UNK     1      34.974  -2.878   5.955  1.00  0.00     0.210 HD
ENDBRANCH  16  23
BRANCH  17  25
ATOM     25  O3  UNK     1      38.398  -4.590   5.642  1.00  0.00    -0.390 OA
ATOM     26  H6  UNK     1      39.307  -4.811   5.902  1.00  0.00     0.210 HD
ENDBRANCH  17  25
BRANCH  18  27
ATOM     27  O4  UNK     1      40.347  -2.642   6.683  1.00  0.00    -0.388 OA
ATOM     28  H7  UNK     1      40.541  -1.715   6.899  1.00  0.00     0.210 HD
ENDBRANCH  18  27
ENDBRANCH  12  13
ENDBRANCH   3  12
BRANCH   5  29
ATOM     29  O9  UNK     1      38.238   0.685   9.969  1.00  0.00    -0.356 OA
ATOM     30  H12 UNK     1      38.165   0.285  10.853  1.00  0.00     0.218 HD
ENDBRANCH   5  29
BRANCH   8  31
ATOM     31  O10 UNK     1      39.541   3.081  10.059  1.00  0.00    -0.357 OA
ATOM     32  H13 UNK     1      38.609   2.867  10.220  1.00  0.00     0.217 HD
ENDBRANCH   8  31
BRANCH  10  33
ATOM     33  C16 UNK     1      45.701   1.939   8.229  1.00  0.00    -0.002 A 
ATOM     34  C17 UNK     1      46.168   2.572   7.074  1.00  0.00     0.014 A 
ATOM     35  C19 UNK     1      47.509   2.458   6.707  1.00  0.00     0.001 A 
ATOM     36  C21 UNK     1      48.387   1.712   7.493  1.00  0.00     0.000 A 
ATOM     37  C20 UNK     1      47.924   1.079   8.647  1.00  0.00     0.001 A 
ATOM     38  C18 UNK     1      46.583   1.193   9.014  1.00  0.00     0.014 A 
ENDBRANCH  10  33
TORSDOF 10
ENDMDL
MODEL 7
REMARK VINA RESULT:      -6.7      5.345      9.293
REMARK  10 active torsions:
REMARK  status: ('A' for Active; 'I' for Inactive)
REMARK    1  A    between atoms: O2_2  and  C4_15 
REMARK    2  A    between atoms: O2_2  and  C7_18 
REMARK    3  A    between atoms: O3_3  and  C1_12 
REMARK    4  A    between atoms: O4_4  and  C2_13 
REMARK    5  A    between atoms: O5_5  and  C3_14 
REMARK    6  A    between atoms: O6_6  and  C6_17 
REMARK    7  A    between atoms: O9_9  and  C9_20 
REMARK    8  A    between atoms: O10_10  and  C12_23 
REMARK    9  A    between atoms: C5_16  and  C6_17 
REMARK   10  A    between atoms: C14_25  and  C16_27 
ROOT
ATOM      1  O8  UNK     1      38.019  -5.236   5.282  1.00  0.00    -0.309 OA
ATOM      2  O11 UNK     1      34.195  -4.129   6.149  1.00  0.00    -0.287 OA
ATOM      3  C7  UNK     1      38.726  -2.213   7.190  1.00  0.00     0.110 A 
ATOM      4  C8  UNK     1      38.900  -3.375   6.438  1.00  0.00     0.078 A 
ATOM      5  C9  UNK     1      37.442  -1.779   7.523  1.00  0.00     0.134 A 
ATOM      6  C10 UNK     1      37.785  -4.103   6.019  1.00  0.00     0.096 A 
ATOM      7  C11 UNK     1      36.504  -3.667   6.352  1.00  0.00     0.084 A 
ATOM      8  C12 UNK     1      36.326  -2.505   7.105  1.00  0.00     0.118 A 
ATOM      9  C13 UNK     1      35.347  -4.453   5.895  1.00  0.00     0.190 A 
ATOM     10  C14 UNK     1      36.931  -5.983   4.858  1.00  0.00     0.090 A 
ATOM     11  C15 UNK     1      35.651  -5.666   5.109  1.00  0.00     0.094 A 
ENDROOT
BRANCH   3  12
ATOM     12  O2  UNK     1      39.822  -1.508   7.595  1.00  0.00    -0.315 OA
BRANCH  12  13
ATOM     13  C4  UNK     1      40.433  -1.924   8.818  1.00  0.00     0.299 C 
ATOM     14  O1  UNK     1      39.427  -2.320   9.748  1.00  0.00    -0.340 OA
ATOM     15  C5  UNK     1      39.978  -2.767  10.982  1.00  0.00     0.253 C 
ATOM     16  C3  UNK     1      40.745  -1.648  11.676  1.00  0.00     0.189 C 
ATOM     17  C1  UNK     1      41.810  -1.063  10.749  1.00  0.00     0.183 C 
ATOM     18  C2  UNK     1      41.234  -0.744   9.369  1.00  0.00     0.205 C 
BRANCH  15  19
ATOM     19  C6  UNK     1      38.773  -3.161  11.772  1.00  0.00     0.172 C 
ATOM     20  O7  UNK     1      38.701  -3.153  12.992  1.00  0.00    -0.648 OA
BRANCH  19  21
ATOM     21  O6  UNK     1      37.762  -3.535  10.950  1.00  0.00    -0.774 OA
ATOM     22  H10 UNK     1      37.073  -4.046  11.426  1.00  0.00     0.167 HD
ENDBRANCH  19  21
ENDBRANCH  15  19
BRANCH  16  23
ATOM     23  O5  UNK     1      41.379  -2.181  12.838  1.00  0.00    -0.390 OA
ATOM     24  H8  UNK     1      40.743  -2.761  13.290  1.00  0.00     0.210 HD
ENDBRANCH  16  23
BRANCH  17  25
ATOM     25  O3  UNK     1      42.308   0.135  11.346  1.00  0.00    -0.390 OA
ATOM     26  H6  UNK     1      42.493  -0.056  12.281  1.00  0.00     0.210 HD
ENDBRANCH  17  25
BRANCH  18  27
ATOM     27  O4  UNK     1      42.301  -0.465   8.463  1.00  0.00    -0.388 OA
ATOM     28  H7  UNK     1      42.085   0.361   7.999  1.00  0.00     0.210 HD
ENDBRANCH  18  27
ENDBRANCH  12  13
ENDBRANCH   3  12
BRANCH   5  29
ATOM     29  O9  UNK     1      37.281  -0.641   8.259  1.00  0.00    -0.356 OA
ATOM     30  H12 UNK     1      36.360  -0.341   8.163  1.00  0.00     0.218 HD
ENDBRANCH   5  29
BRANCH   8  31
ATOM     31  O10 UNK     1      35.088  -2.049   7.449  1.00  0.00    -0.357 OA
ATOM     32  H13 UNK     1      34.883  -1.224   6.983  1.00  0.00     0.217 HD
ENDBRANCH   8  31
BRANCH  10  33
ATOM     33  C16 UNK     1      37.295  -7.179   4.070  1.00  0.00    -0.002 A 
ATOM     34  C17 UNK     1      38.521  -7.813   4.283  1.00  0.00     0.014 A 
ATOM     35  C19 UNK     1      38.864  -8.942   3.539  1.00  0.00     0.001 A 
ATOM     36  C21 UNK     1      37.983  -9.441   2.581  1.00  0.00     0.000 A 
ATOM     37  C20 UNK     1      36.757  -8.810   2.364  1.00  0.00     0.001 A 
ATOM     38  C18 UNK     1      36.415  -7.680   3.109  1.00  0.00     0.014 A 
ENDBRANCH  10  33
TORSDOF 10
ENDMDL
MODEL 8
REMARK VINA RESULT:      -6.7      1.455      2.677
REMARK  10 active torsions:
REMARK  status: ('A' for Active; 'I' for Inactive)
REMARK    1  A    between atoms: O2_2  and  C4_15 
REMARK    2  A    between atoms: O2_2  and  C7_18 
REMARK    3  A    between atoms: O3_3  and  C1_12 
REMARK    4  A    between atoms: O4_4  and  C2_13 
REMARK    5  A    between atoms: O5_5  and  C3_14 
REMARK    6  A    between atoms: O6_6  and  C6_17 
REMARK    7  A    between atoms: O9_9  and  C9_20 
REMARK    8  A    between atoms: O10_10  and  C12_23 
REMARK    9  A    between atoms: C5_16  and  C6_17 
REMARK   10  A    between atoms: C14_25  and  C16_27 
ROOT
ATOM      1  O8  UNK     1      44.777   2.963   9.033  1.00  0.00    -0.309 OA
ATOM      2  O11 UNK     1      43.584   6.838   9.431  1.00  0.00    -0.287 OA
ATOM      3  C7  UNK     1      41.280   2.391   9.882  1.00  0.00     0.110 A 
ATOM      4  C8  UNK     1      42.615   2.165   9.546  1.00  0.00     0.078 A 
ATOM      5  C9  UNK     1      40.806   3.695  10.032  1.00  0.00     0.134 A 
ATOM      6  C10 UNK     1      43.476   3.247   9.361  1.00  0.00     0.096 A 
ATOM      7  C11 UNK     1      43.001   4.548   9.512  1.00  0.00     0.084 A 
ATOM      8  C12 UNK     1      41.665   4.779   9.848  1.00  0.00     0.118 A 
ATOM      9  C13 UNK     1      43.931   5.671   9.313  1.00  0.00     0.190 A 
ATOM     10  C14 UNK     1      45.654   4.019   8.835  1.00  0.00     0.090 A 
ATOM     11  C15 UNK     1      45.319   5.312   8.957  1.00  0.00     0.094 A 
ENDROOT
BRANCH   3  12
ATOM     12  O2  UNK     1      40.446   1.326  10.060  1.00  0.00    -0.315 OA
BRANCH  12  13
ATOM     13  C4  UNK     1      41.039   0.029   9.980  1.00  0.00     0.299 C 
ATOM     14  O1  UNK     1      40.296  -0.784   9.075  1.00  0.00    -0.340 OA
ATOM     15  C5  UNK     1      40.854  -2.086   8.936  1.00  0.00     0.253 C 
ATOM     16  C3  UNK     1      40.826  -2.838  10.261  1.00  0.00     0.189 C 
ATOM     17  C1  UNK     1      41.519  -2.029  11.358  1.00  0.00     0.183 C 
ATOM     18  C2  UNK     1      41.024  -0.583  11.381  1.00  0.00     0.205 C 
BRANCH  15  19
ATOM     19  C6  UNK     1      39.958  -2.738   7.933  1.00  0.00     0.172 C 
ATOM     20  O7  UNK     1      38.893  -3.279   8.189  1.00  0.00    -0.648 OA
BRANCH  19  21
ATOM     21  O6  UNK     1      40.490  -2.651   6.689  1.00  0.00    -0.774 OA
ATOM     22  H10 UNK     1      41.302  -2.100   6.675  1.00  0.00     0.167 HD
ENDBRANCH  19  21
ENDBRANCH  15  19
BRANCH  16  23
ATOM     23  O5  UNK     1      41.508  -4.080  10.097  1.00  0.00    -0.390 OA
ATOM     24  H8  UNK     1      42.082  -4.215  10.871  1.00  0.00     0.210 HD
ENDBRANCH  16  23
BRANCH  17  25
ATOM     25  O3  UNK     1      41.234  -2.651  12.613  1.00  0.00    -0.390 OA
ATOM     26  H6  UNK     1      41.482  -3.587  12.542  1.00  0.00     0.210 HD
ENDBRANCH  17  25
BRANCH  18  27
ATOM     27  O4  UNK     1      41.878   0.196  12.219  1.00  0.00    -0.388 OA
ATOM     28  H7  UNK     1      42.064   1.030  11.756  1.00  0.00     0.210 HD
ENDBRANCH  18  27
ENDBRANCH  12  13
ENDBRANCH   3  12
BRANCH   5  29
ATOM     29  O9  UNK     1      39.499   3.907  10.361  1.00  0.00    -0.356 OA
ATOM     30  H12 UNK     1      39.205   4.732   9.936  1.00  0.00     0.218 HD
ENDBRANCH   5  29
BRANCH   8  31
ATOM     31  O10 UNK     1      41.166   6.038  10.003  1.00  0.00    -0.357 OA
ATOM     32  H13 UNK     1      41.695   6.541  10.641  1.00  0.00     0.217 HD
ENDBRANCH   8  31
BRANCH  10  33
ATOM     33  C16 UNK     1      47.029   3.601   8.491  1.00  0.00    -0.002 A 
ATOM     34  C17 UNK     1      47.238   2.557   7.586  1.00  0.00     0.014 A 
ATOM     35  C19 UNK     1      48.537   2.163   7.261  1.00  0.00     0.001 A 
ATOM     36  C21 UNK     1      49.628   2.811   7.838  1.00  0.00     0.000 A 
ATOM     37  C20 UNK     1      49.422   3.854   8.742  1.00  0.00     0.001 A 
ATOM     38  C18 UNK     1      48.124   4.247   9.067  1.00  0.00     0.014 A 
ENDBRANCH  10  33
TORSDOF 10
ENDMDL
MODEL 9
REMARK VINA RESULT:      -6.7      2.564      4.987
REMARK  10 active torsions:
REMARK  status: ('A' for Active; 'I' for Inactive)
REMARK    1  A    between atoms: O2_2  and  C4_15 
REMARK    2  A    between atoms: O2_2  and  C7_18 
REMARK    3  A    between atoms: O3_3  and  C1_12 
REMARK    4  A    between atoms: O4_4  and  C2_13 
REMARK    5  A    between atoms: O5_5  and  C3_14 
REMARK    6  A    between atoms: O6_6  and  C6_17 
REMARK    7  A    between atoms: O9_9  and  C9_20 
REMARK    8  A    between atoms: O10_10  and  C12_23 
REMARK    9  A    between atoms: C5_16  and  C6_17 
REMARK   10  A    between atoms: C14_25  and  C16_27 
ROOT
ATOM      1  O8  UNK     1      42.863   4.522  10.551  1.00  0.00    -0.309 OA
ATOM      2  O11 UNK     1      46.713   3.879   9.386  1.00  0.00    -0.287 OA
ATOM      3  C7  UNK     1      42.247   2.139   7.864  1.00  0.00     0.110 A 
ATOM      4  C8  UNK     1      42.039   3.030   8.916  1.00  0.00     0.078 A 
ATOM      5  C9  UNK     1      43.543   1.873   7.417  1.00  0.00     0.134 A 
ATOM      6  C10 UNK     1      43.130   3.655   9.522  1.00  0.00     0.096 A 
ATOM      7  C11 UNK     1      44.422   3.389   9.073  1.00  0.00     0.084 A 
ATOM      8  C12 UNK     1      44.635   2.497   8.020  1.00  0.00     0.118 A 
ATOM      9  C13 UNK     1      45.553   4.063   9.729  1.00  0.00     0.190 A 
ATOM     10  C14 UNK     1      43.927   5.152  11.177  1.00  0.00     0.090 A 
ATOM     11  C15 UNK     1      45.214   4.983  10.834  1.00  0.00     0.094 A 
ENDROOT
BRANCH   3  12
ATOM     12  O2  UNK     1      41.175   1.532   7.279  1.00  0.00    -0.315 OA
BRANCH  12  13
ATOM     13  C4  UNK     1      40.346   0.740   8.130  1.00  0.00     0.299 C 
ATOM     14  O1  UNK     1      41.108  -0.331   8.683  1.00  0.00    -0.340 OA
ATOM     15  C5  UNK     1      40.339  -1.145   9.560  1.00  0.00     0.253 C 
ATOM     16  C3  UNK     1      39.190  -1.817   8.818  1.00  0.00     0.189 C 
ATOM     17  C1  UNK     1      38.331  -0.779   8.095  1.00  0.00     0.183 C 
ATOM     18  C2  UNK     1      39.192   0.193   7.288  1.00  0.00     0.205 C 
BRANCH  15  19
ATOM     19  C6  UNK     1      41.327  -2.157  10.044  1.00  0.00     0.172 C 
ATOM     20  O7  UNK     1      41.597  -2.369  11.217  1.00  0.00    -0.648 OA
BRANCH  19  21
ATOM     21  O6  UNK     1      41.892  -2.811   9.000  1.00  0.00    -0.774 OA
ATOM     22  H10 UNK     1      41.226  -3.297   8.468  1.00  0.00     0.167 HD
ENDBRANCH  19  21
ENDBRANCH  15  19
BRANCH  16  23
ATOM     23  O5  UNK     1      38.381  -2.515   9.763  1.00  0.00    -0.390 OA
ATOM     24  H8  UNK     1      37.572  -2.809   9.309  1.00  0.00     0.210 HD
ENDBRANCH  16  23
BRANCH  17  25
ATOM     25  O3  UNK     1      37.444  -1.473   7.216  1.00  0.00    -0.390 OA
ATOM     26  H6  UNK     1      37.921  -1.639   6.386  1.00  0.00     0.210 HD
ENDBRANCH  17  25
BRANCH  18  27
ATOM     27  O4  UNK     1      38.390   1.294   6.860  1.00  0.00    -0.388 OA
ATOM     28  H7  UNK     1      38.890   2.108   7.034  1.00  0.00     0.210 HD
ENDBRANCH  18  27
ENDBRANCH  12  13
ENDBRANCH   3  12
BRANCH   5  29
ATOM     29  O9  UNK     1      43.738   1.000   6.386  1.00  0.00    -0.356 OA
ATOM     30  H12 UNK     1      42.888   0.867   5.930  1.00  0.00     0.218 HD
ENDBRANCH   5  29
BRANCH   8  31
ATOM     31  O10 UNK     1      45.884   2.212   7.555  1.00  0.00    -0.357 OA
ATOM     32  H13 UNK     1      45.895   1.356   7.101  1.00  0.00     0.217 HD
ENDBRANCH   8  31
BRANCH  10  33
ATOM     33  C16 UNK     1      43.527   6.065  12.267  1.00  0.00    -0.002 A 
ATOM     34  C17 UNK     1      43.460   5.600  13.583  1.00  0.00     0.014 A 
ATOM     35  C19 UNK     1      43.084   6.463  14.612  1.00  0.00     0.001 A 
ATOM     36  C21 UNK     1      42.774   7.793  14.330  1.00  0.00     0.000 A 
ATOM     37  C20 UNK     1      42.840   8.261  13.017  1.00  0.00     0.001 A 
ATOM     38  C18 UNK     1      43.216   7.398  11.988  1.00  0.00     0.014 A 
ENDBRANCH  10  33
TORSDOF 10
ENDMDL
MODEL 10
REMARK VINA RESULT:      -6.7      2.064      3.261
REMARK  10 active torsions:
REMARK  status: ('A' for Active; 'I' for Inactive)
REMARK    1  A    between atoms: O2_2  and  C4_15 
REMARK    2  A    between atoms: O2_2  and  C7_18 
REMARK    3  A    between atoms: O3_3  and  C1_12 
REMARK    4  A    between atoms: O4_4  and  C2_13 
REMARK    5  A    between atoms: O5_5  and  C3_14 
REMARK    6  A    between atoms: O6_6  and  C6_17 
REMARK    7  A    between atoms: O9_9  and  C9_20 
REMARK    8  A    between atoms: O10_10  and  C12_23 
REMARK    9  A    between atoms: C5_16  and  C6_17 
REMARK   10  A    between atoms: C14_25  and  C16_27 
ROOT
ATOM      1  O8  UNK     1      45.395   2.251   9.179  1.00  0.00    -0.309 OA
ATOM      2  O11 UNK     1      44.284   5.177  11.789  1.00  0.00    -0.287 OA
ATOM      3  C7  UNK     1      42.428   0.662  10.578  1.00  0.00     0.110 A 
ATOM      4  C8  UNK     1      43.571   0.890   9.811  1.00  0.00     0.078 A 
ATOM      5  C9  UNK     1      41.993   1.625  11.490  1.00  0.00     0.134 A 
ATOM      6  C10 UNK     1      44.279   2.084   9.959  1.00  0.00     0.096 A 
ATOM      7  C11 UNK     1      43.842   3.044  10.870  1.00  0.00     0.084 A 
ATOM      8  C12 UNK     1      42.698   2.819  11.639  1.00  0.00     0.118 A 
ATOM      9  C13 UNK     1      44.608   4.292  11.007  1.00  0.00     0.190 A 
ATOM     10  C14 UNK     1      46.113   3.431   9.299  1.00  0.00     0.090 A 
ATOM     11  C15 UNK     1      45.798   4.426  10.143  1.00  0.00     0.094 A 
ENDROOT
BRANCH   3  12
ATOM     12  O2  UNK     1      41.744  -0.508  10.426  1.00  0.00    -0.315 OA
BRANCH  12  13
ATOM     13  C4  UNK     1      41.232  -0.785   9.121  1.00  0.00     0.299 C 
ATOM     14  O1  UNK     1      40.235   0.176   8.782  1.00  0.00    -0.340 OA
ATOM     15  C5  UNK     1      39.701  -0.035   7.479  1.00  0.00     0.253 C 
ATOM     16  C3  UNK     1      39.002  -1.386   7.387  1.00  0.00     0.189 C 
ATOM     17  C1  UNK     1      39.942  -2.514   7.813  1.00  0.00     0.183 C 
ATOM     18  C2  UNK     1      40.634  -2.191   9.138  1.00  0.00     0.205 C 
BRANCH  15  19
ATOM     19  C6  UNK     1      38.725   1.085   7.323  1.00  0.00     0.172 C 
ATOM     20  O7  UNK     1      38.179   1.674   8.244  1.00  0.00    -0.648 OA
BRANCH  19  21
ATOM     21  O6  UNK     1      38.520   1.361   6.012  1.00  0.00    -0.774 OA
ATOM     22  H10 UNK     1      38.088   2.232   5.884  1.00  0.00     0.167 HD
ENDBRANCH  19  21
ENDBRANCH  15  19
BRANCH  16  23
ATOM     23  O5  UNK     1      38.601  -1.601   6.034  1.00  0.00    -0.390 OA
ATOM     24  H8  UNK     1      37.993  -2.360   6.017  1.00  0.00     0.210 HD
ENDBRANCH  16  23
BRANCH  17  25
ATOM     25  O3  UNK     1      39.166  -3.705   7.958  1.00  0.00    -0.390 OA
ATOM     26  H6  UNK     1      38.318  -3.562   7.508  1.00  0.00     0.210 HD
ENDBRANCH  17  25
BRANCH  18  27
ATOM     27  O4  UNK     1      41.691  -3.125   9.360  1.00  0.00    -0.388 OA
ATOM     28  H7  UNK     1      41.315  -3.891   9.824  1.00  0.00     0.210 HD
ENDBRANCH  18  27
ENDBRANCH  12  13
ENDBRANCH   3  12
BRANCH   5  29
ATOM     29  O9  UNK     1      40.873   1.394  12.236  1.00  0.00    -0.356 OA
ATOM     30  H12 UNK     1      40.481   0.551  11.949  1.00  0.00     0.218 HD
ENDBRANCH   5  29
BRANCH   8  31
ATOM     31  O10 UNK     1      42.242   3.735  12.540  1.00  0.00    -0.357 OA
ATOM     32  H13 UNK     1      41.297   3.606  12.713  1.00  0.00     0.217 HD
ENDBRANCH   8  31
BRANCH  10  33
ATOM     33  C16 UNK     1      47.297   3.505   8.418  1.00  0.00    -0.002 A 
ATOM     34  C17 UNK     1      48.410   4.259   8.800  1.00  0.00     0.014 A 
ATOM     35  C19 UNK     1      49.527   4.328   7.968  1.00  0.00     0.001 A 
ATOM     36  C21 UNK     1      49.537   3.642   6.753  1.00  0.00     0.000 A 
ATOM     37  C20 UNK     1      48.428   2.888   6.369  1.00  0.00     0.001 A 
ATOM     38  C18 UNK     1      47.310   2.820   7.201  1.00  0.00     0.014 A 
ENDBRANCH  10  33
TORSDOF 10
ENDMDL
MODEL 11
REMARK VINA RESULT:      -6.7      2.571      3.844
REMARK  10 active torsions:
REMARK  status: ('A' for Active; 'I' for Inactive)
REMARK    1  A    between atoms: O2_2  and  C4_15 
REMARK    2  A    between atoms: O2_2  and  C7_18 
REMARK    3  A    between atoms: O3_3  and  C1_12 
REMARK    4  A    between atoms: O4_4  and  C2_13 
REMARK    5  A    between atoms: O5_5  and  C3_14 
REMARK    6  A    between atoms: O6_6  and  C6_17 
REMARK    7  A    between atoms: O9_9  and  C9_20 
REMARK    8  A    between atoms: O10_10  and  C12_23 
REMARK    9  A    between atoms: C5_16  and  C6_17 
REMARK   10  A    between atoms: C14_25  and  C16_27 
ROOT
ATOM      1  O8  UNK     1      43.307   1.729   8.493  1.00  0.00    -0.309 OA
ATOM      2  O11 UNK     1      42.815   3.487  12.136  1.00  0.00    -0.287 OA
ATOM      3  C7  UNK     1      39.676   1.535   8.727  1.00  0.00     0.110 A 
ATOM      4  C8  UNK     1      40.980   1.410   8.249  1.00  0.00     0.078 A 
ATOM      5  C9  UNK     1      39.438   2.129   9.967  1.00  0.00     0.134 A 
ATOM      6  C10 UNK     1      42.048   1.881   9.015  1.00  0.00     0.096 A 
ATOM      7  C11 UNK     1      41.808   2.473  10.253  1.00  0.00     0.084 A 
ATOM      8  C12 UNK     1      40.503   2.600  10.735  1.00  0.00     0.118 A 
ATOM      9  C13 UNK     1      42.952   2.959  11.040  1.00  0.00     0.190 A 
ATOM     10  C14 UNK     1      44.387   2.195   9.228  1.00  0.00     0.090 A 
ATOM     11  C15 UNK     1      44.286   2.777  10.433  1.00  0.00     0.094 A 
ENDROOT
BRANCH   3  12
ATOM     12  O2  UNK     1      38.639   1.072   7.971  1.00  0.00    -0.315 OA
BRANCH  12  13
ATOM     13  C4  UNK     1      38.165  -0.241   8.271  1.00  0.00     0.299 C 
ATOM     14  O1  UNK     1      38.692  -1.171   7.327  1.00  0.00    -0.340 OA
ATOM     15  C5  UNK     1      38.271  -2.505   7.589  1.00  0.00     0.253 C 
ATOM     16  C3  UNK     1      36.757  -2.634   7.473  1.00  0.00     0.189 C 
ATOM     17  C1  UNK     1      36.056  -1.622   8.378  1.00  0.00     0.183 C 
ATOM     18  C2  UNK     1      36.638  -0.219   8.202  1.00  0.00     0.205 C 
BRANCH  15  19
ATOM     19  C6  UNK     1      38.959  -3.297   6.524  1.00  0.00     0.172 C 
ATOM     20  O7  UNK     1      38.444  -4.195   5.875  1.00  0.00    -0.648 OA
BRANCH  19  21
ATOM     21  O6  UNK     1      40.241  -2.885   6.375  1.00  0.00    -0.774 OA
ATOM     22  H10 UNK     1      40.734  -2.904   7.224  1.00  0.00     0.167 HD
ENDBRANCH  19  21
ENDBRANCH  15  19
BRANCH  16  23
ATOM     23  O5  UNK     1      36.379  -3.952   7.868  1.00  0.00    -0.390 OA
ATOM     24  H8  UNK     1      35.420  -3.957   8.026  1.00  0.00     0.210 HD
ENDBRANCH  16  23
BRANCH  17  25
ATOM     25  O3  UNK     1      34.669  -1.608   8.035  1.00  0.00    -0.390 OA
ATOM     26  H6  UNK     1      34.411  -2.517   7.810  1.00  0.00     0.210 HD
ENDBRANCH  17  25
BRANCH  18  27
ATOM     27  O4  UNK     1      36.155   0.629   9.244  1.00  0.00    -0.388 OA
ATOM     28  H7  UNK     1      36.630   1.474   9.180  1.00  0.00     0.210 HD
ENDBRANCH  18  27
ENDBRANCH  12  13
ENDBRANCH   3  12
BRANCH   5  29
ATOM     29  O9  UNK     1      38.158   2.247  10.428  1.00  0.00    -0.356 OA
ATOM     30  H12 UNK     1      37.797   3.096  10.119  1.00  0.00     0.218 HD
ENDBRANCH   5  29
BRANCH   8  31
ATOM     31  O10 UNK     1      40.231   3.174  11.941  1.00  0.00    -0.357 OA
ATOM     32  H13 UNK     1      39.943   4.093  11.828  1.00  0.00     0.217 HD
ENDBRANCH   8  31
BRANCH  10  33
ATOM     33  C16 UNK     1      45.695   1.977   8.577  1.00  0.00    -0.002 A 
ATOM     34  C17 UNK     1      45.984   2.600   7.360  1.00  0.00     0.014 A 
ATOM     35  C19 UNK     1      47.220   2.396   6.746  1.00  0.00     0.001 A 
ATOM     36  C21 UNK     1      48.170   1.569   7.346  1.00  0.00     0.000 A 
ATOM     37  C20 UNK     1      47.884   0.946   8.561  1.00  0.00     0.001 A 
ATOM     38  C18 UNK     1      46.648   1.150   9.175  1.00  0.00     0.014 A 
ENDBRANCH  10  33
TORSDOF 10
ENDMDL
MODEL 12
REMARK VINA RESULT:      -6.7      5.975     10.093
REMARK  10 active torsions:
REMARK  status: ('A' for Active; 'I' for Inactive)
REMARK    1  A    between atoms: O2_2  and  C4_15 
REMARK    2  A    between atoms: O2_2  and  C7_18 
REMARK    3  A    between atoms: O3_3  and  C1_12 
REMARK    4  A    between atoms: O4_4  and  C2_13 
REMARK    5  A    between atoms: O5_5  and  C3_14 
REMARK    6  A    between atoms: O6_6  and  C6_17 
REMARK    7  A    between atoms: O9_9  and  C9_20 
REMARK    8  A    between atoms: O10_10  and  C12_23 
REMARK    9  A    between atoms: C5_16  and  C6_17 
REMARK   10  A    between atoms: C14_25  and  C16_27 
ROOT
ATOM      1  O8  UNK     1      37.007  -5.508   5.291  1.00  0.00    -0.309 OA
ATOM      2  O11 UNK     1      33.025  -5.980   6.011  1.00  0.00    -0.287 OA
ATOM      3  C7  UNK     1      36.402  -2.431   7.148  1.00  0.00     0.110 A 
ATOM      4  C8  UNK     1      37.045  -3.439   6.429  1.00  0.00     0.078 A 
ATOM      5  C9  UNK     1      35.039  -2.532   7.429  1.00  0.00     0.134 A 
ATOM      6  C10 UNK     1      36.321  -4.550   5.993  1.00  0.00     0.096 A 
ATOM      7  C11 UNK     1      34.960  -4.648   6.275  1.00  0.00     0.084 A 
ATOM      8  C12 UNK     1      34.313  -3.641   6.994  1.00  0.00     0.118 A 
ATOM      9  C13 UNK     1      34.221  -5.829   5.802  1.00  0.00     0.190 A 
ATOM     10  C14 UNK     1      36.316  -6.626   4.851  1.00  0.00     0.090 A 
ATOM     11  C15 UNK     1      35.005  -6.833   5.055  1.00  0.00     0.094 A 
ENDROOT
BRANCH   3  12
ATOM     12  O2  UNK     1      37.118  -1.350   7.570  1.00  0.00    -0.315 OA
BRANCH  12  13
ATOM     13  C4  UNK     1      38.534  -1.517   7.662  1.00  0.00     0.299 C 
ATOM     14  O1  UNK     1      38.859  -2.206   8.867  1.00  0.00    -0.340 OA
ATOM     15  C5  UNK     1      40.259  -2.423   9.004  1.00  0.00     0.253 C 
ATOM     16  C3  UNK     1      41.012  -1.100   9.086  1.00  0.00     0.189 C 
ATOM     17  C1  UNK     1      40.683  -0.214   7.885  1.00  0.00     0.183 C 
ATOM     18  C2  UNK     1      39.174  -0.128   7.653  1.00  0.00     0.205 C 
BRANCH  15  19
ATOM     19  C6  UNK     1      40.365  -3.179  10.289  1.00  0.00     0.172 C 
ATOM     20  O7  UNK     1      39.439  -3.386  11.059  1.00  0.00    -0.648 OA
BRANCH  19  21
ATOM     21  O6  UNK     1      41.635  -3.605  10.490  1.00  0.00    -0.774 OA
ATOM     22  H10 UNK     1      42.212  -3.416   9.719  1.00  0.00     0.167 HD
ENDBRANCH  19  21
ENDBRANCH  15  19
BRANCH  16  23
ATOM     23  O5  UNK     1      42.413  -1.372   9.094  1.00  0.00    -0.390 OA
ATOM     24  H8  UNK     1      42.706  -1.417  10.020  1.00  0.00     0.210 HD
ENDBRANCH  16  23
BRANCH  17  25
ATOM     25  O3  UNK     1      41.199   1.093   8.145  1.00  0.00    -0.390 OA
ATOM     26  H6  UNK     1      41.651   1.067   9.004  1.00  0.00     0.210 HD
ENDBRANCH  17  25
BRANCH  18  27
ATOM     27  O4  UNK     1      38.924   0.471   6.381  1.00  0.00    -0.388 OA
ATOM     28  H7  UNK     1      38.240   1.151   6.506  1.00  0.00     0.210 HD
ENDBRANCH  18  27
ENDBRANCH  12  13
ENDBRANCH   3  12
BRANCH   5  29
ATOM     29  O9  UNK     1      34.417  -1.541   8.132  1.00  0.00    -0.356 OA
ATOM     30  H12 UNK     1      34.756  -0.683   7.821  1.00  0.00     0.218 HD
ENDBRANCH   5  29
BRANCH   8  31
ATOM     31  O10 UNK     1      32.983  -3.703   7.288  1.00  0.00    -0.357 OA
ATOM     32  H13 UNK     1      32.450  -3.655   6.481  1.00  0.00     0.217 HD
ENDBRANCH   8  31
BRANCH  10  33
ATOM     33  C16 UNK     1      37.148  -7.591   4.104  1.00  0.00    -0.002 A 
ATOM     34  C17 UNK     1      38.493  -7.765   4.440  1.00  0.00     0.014 A 
ATOM     35  C19 UNK     1      39.279  -8.676   3.734  1.00  0.00     0.001 A 
ATOM     36  C21 UNK     1      38.722  -9.418   2.692  1.00  0.00     0.000 A 
ATOM     37  C20 UNK     1      37.380  -9.246   2.354  1.00  0.00     0.001 A 
ATOM     38  C18 UNK     1      36.594  -8.335   3.059  1.00  0.00     0.014 A 
ENDBRANCH  10  33
TORSDOF 10
ENDMDL
MODEL 13
REMARK VINA RESULT:      -6.7      2.205      2.974
REMARK  10 active torsions:
REMARK  status: ('A' for Active; 'I' for Inactive)
REMARK    1  A    between atoms: O2_2  and  C4_15 
REMARK    2  A    between atoms: O2_2  and  C7_18 
REMARK    3  A    between atoms: O3_3  and  C1_12 
REMARK    4  A    between atoms: O4_4  and  C2_13 
REMARK    5  A    between atoms: O5_5  and  C3_14 
REMARK    6  A    between atoms: O6_6  and  C6_17 
REMARK    7  A    between atoms: O9_9  and  C9_20 
REMARK    8  A    between atoms: O10_10  and  C12_23 
REMARK    9  A    between atoms: C5_16  and  C6_17 
REMARK   10  A    between atoms: C14_25  and  C16_27 
ROOT
ATOM      1  O8  UNK     1      45.490   3.339   9.398  1.00  0.00    -0.309 OA
ATOM      2  O11 UNK     1      43.961   7.113   9.550  1.00  0.00    -0.287 OA
ATOM      3  C7  UNK     1      42.001   2.507  10.039  1.00  0.00     0.110 A 
ATOM      4  C8  UNK     1      43.370   2.382   9.802  1.00  0.00     0.078 A 
ATOM      5  C9  UNK     1      41.413   3.772  10.101  1.00  0.00     0.134 A 
ATOM      6  C10 UNK     1      44.151   3.525   9.627  1.00  0.00     0.096 A 
ATOM      7  C11 UNK     1      43.562   4.787   9.691  1.00  0.00     0.084 A 
ATOM      8  C12 UNK     1      42.192   4.917   9.927  1.00  0.00     0.118 A 
ATOM      9  C13 UNK     1      44.409   5.975   9.505  1.00  0.00     0.190 A 
ATOM     10  C14 UNK     1      46.290   4.457   9.214  1.00  0.00     0.090 A 
ATOM     11  C15 UNK     1      45.843   5.722   9.257  1.00  0.00     0.094 A 
ENDROOT
BRANCH   3  12
ATOM     12  O2  UNK     1      41.246   1.384  10.208  1.00  0.00    -0.315 OA
BRANCH  12  13
ATOM     13  C4  UNK     1      40.656   0.827   9.032  1.00  0.00     0.299 C 
ATOM     14  O1  UNK     1      39.236   0.841   9.153  1.00  0.00    -0.340 OA
ATOM     15  C5  UNK     1      38.589   0.317   7.999  1.00  0.00     0.253 C 
ATOM     16  C3  UNK     1      38.956  -1.146   7.783  1.00  0.00     0.189 C 
ATOM     17  C1  UNK     1      40.473  -1.322   7.722  1.00  0.00     0.183 C 
ATOM     18  C2  UNK     1      41.164  -0.608   8.884  1.00  0.00     0.205 C 
BRANCH  15  19
ATOM     19  C6  UNK     1      37.138   0.463   8.322  1.00  0.00     0.172 C 
ATOM     20  O7  UNK     1      36.688   0.717   9.430  1.00  0.00    -0.648 OA
BRANCH  19  21
ATOM     21  O6  UNK     1      36.379   0.271   7.216  1.00  0.00    -0.774 OA
ATOM     22  H10 UNK     1      36.098   1.120   6.812  1.00  0.00     0.167 HD
ENDBRANCH  19  21
ENDBRANCH  15  19
BRANCH  16  23
ATOM     23  O5  UNK     1      38.387  -1.583   6.549  1.00  0.00    -0.390 OA
ATOM     24  H8  UNK     1      39.102  -1.942   5.997  1.00  0.00     0.210 HD
ENDBRANCH  16  23
BRANCH  17  25
ATOM     25  O3  UNK     1      40.760  -2.720   7.784  1.00  0.00    -0.390 OA
ATOM     26  H6  UNK     1      41.695  -2.841   7.552  1.00  0.00     0.210 HD
ENDBRANCH  17  25
BRANCH  18  27
ATOM     27  O4  UNK     1      42.571  -0.562   8.644  1.00  0.00    -0.388 OA
ATOM     28  H7  UNK     1      42.726   0.071   7.923  1.00  0.00     0.210 HD
ENDBRANCH  18  27
ENDBRANCH  12  13
ENDBRANCH   3  12
BRANCH   5  29
ATOM     29  O9  UNK     1      40.073   3.886  10.334  1.00  0.00    -0.356 OA
ATOM     30  H12 UNK     1      39.919   3.806  11.291  1.00  0.00     0.218 HD
ENDBRANCH   5  29
BRANCH   8  31
ATOM     31  O10 UNK     1      41.582   6.134   9.995  1.00  0.00    -0.357 OA
ATOM     32  H13 UNK     1      41.395   6.475   9.108  1.00  0.00     0.217 HD
ENDBRANCH   8  31
BRANCH  10  33
ATOM     33  C16 UNK     1      47.714   4.143   8.979  1.00  0.00    -0.002 A 
ATOM     34  C17 UNK     1      48.116   2.821   8.770  1.00  0.00     0.014 A 
ATOM     35  C19 UNK     1      49.462   2.526   8.548  1.00  0.00     0.001 A 
ATOM     36  C21 UNK     1      50.408   3.550   8.533  1.00  0.00     0.000 A 
ATOM     37  C20 UNK     1      50.010   4.871   8.741  1.00  0.00     0.001 A 
ATOM     38  C18 UNK     1      48.665   5.166   8.963  1.00  0.00     0.014 A 
ENDBRANCH  10  33
TORSDOF 10
ENDMDL
MODEL 14
REMARK VINA RESULT:      -6.6      2.598      3.842
REMARK  10 active torsions:
REMARK  status: ('A' for Active; 'I' for Inactive)
REMARK    1  A    between atoms: O2_2  and  C4_15 
REMARK    2  A    between atoms: O2_2  and  C7_18 
REMARK    3  A    between atoms: O3_3  and  C1_12 
REMARK    4  A    between atoms: O4_4  and  C2_13 
REMARK    5  A    between atoms: O5_5  and  C3_14 
REMARK    6  A    between atoms: O6_6  and  C6_17 
REMARK    7  A    between atoms: O9_9  and  C9_20 
REMARK    8  A    between atoms: O10_10  and  C12_23 
REMARK    9  A    between atoms: C5_16  and  C6_17 
REMARK   10  A    between atoms: C14_25  and  C16_27 
ROOT
ATOM      1  O8  UNK     1      44.146   0.467   9.321  1.00  0.00    -0.309 OA
ATOM      2  O11 UNK     1      42.868   3.010   6.405  1.00  0.00    -0.287 OA
ATOM      3  C7  UNK     1      40.582  -0.288   9.436  1.00  0.00     0.110 A 
ATOM      4  C8  UNK     1      41.949  -0.306   9.715  1.00  0.00     0.078 A 
ATOM      5  C9  UNK     1      40.080   0.559   8.448  1.00  0.00     0.134 A 
ATOM      6  C10 UNK     1      42.813   0.527   9.002  1.00  0.00     0.096 A 
ATOM      7  C11 UNK     1      42.308   1.373   8.016  1.00  0.00     0.084 A 
ATOM      8  C12 UNK     1      40.940   1.393   7.734  1.00  0.00     0.118 A 
ATOM      9  C13 UNK     1      43.241   2.241   7.281  1.00  0.00     0.190 A 
ATOM     10  C14 UNK     1      45.029   1.278   8.624  1.00  0.00     0.090 A 
ATOM     11  C15 UNK     1      44.665   2.137   7.658  1.00  0.00     0.094 A 
ENDROOT
BRANCH   3  12
ATOM     12  O2  UNK     1      39.747  -1.107  10.138  1.00  0.00    -0.315 OA
BRANCH  12  13
ATOM     13  C4  UNK     1      39.480  -2.389   9.569  1.00  0.00     0.299 C 
ATOM     14  O1  UNK     1      38.864  -2.230   8.293  1.00  0.00    -0.340 OA
ATOM     15  C5  UNK     1      38.594  -3.478   7.664  1.00  0.00     0.253 C 
ATOM     16  C3  UNK     1      37.607  -4.302   8.483  1.00  0.00     0.189 C 
ATOM     17  C1  UNK     1      38.106  -4.476   9.917  1.00  0.00     0.183 C 
ATOM     18  C2  UNK     1      38.550  -3.143  10.520  1.00  0.00     0.205 C 
BRANCH  15  19
ATOM     19  C6  UNK     1      37.998  -3.079   6.353  1.00  0.00     0.172 C 
ATOM     20  O7  UNK     1      37.179  -3.734   5.726  1.00  0.00    -0.648 OA
BRANCH  19  21
ATOM     21  O6  UNK     1      38.495  -1.886   5.945  1.00  0.00    -0.774 OA
ATOM     22  H10 UNK     1      37.895  -1.143   6.168  1.00  0.00     0.167 HD
ENDBRANCH  19  21
ENDBRANCH  15  19
BRANCH  16  23
ATOM     23  O5  UNK     1      37.471  -5.586   7.877  1.00  0.00    -0.390 OA
ATOM     24  H8  UNK     1      37.000  -5.473   7.034  1.00  0.00     0.210 HD
ENDBRANCH  16  23
BRANCH  17  25
ATOM     25  O3  UNK     1      37.038  -5.018  10.695  1.00  0.00    -0.390 OA
ATOM     26  H6  UNK     1      37.375  -5.805  11.154  1.00  0.00     0.210 HD
ENDBRANCH  17  25
BRANCH  18  27
ATOM     27  O4  UNK     1      39.255  -3.384  11.738  1.00  0.00    -0.388 OA
ATOM     28  H7  UNK     1      38.606  -3.377  12.460  1.00  0.00     0.210 HD
ENDBRANCH  18  27
ENDBRANCH  12  13
ENDBRANCH   3  12
BRANCH   5  29
ATOM     29  O9  UNK     1      38.741   0.570   8.182  1.00  0.00    -0.356 OA
ATOM     30  H12 UNK     1      38.259   0.482   9.023  1.00  0.00     0.218 HD
ENDBRANCH   5  29
BRANCH   8  31
ATOM     31  O10 UNK     1      40.412   2.206   6.777  1.00  0.00    -0.357 OA
ATOM     32  H13 UNK     1      39.824   1.708   6.188  1.00  0.00     0.217 HD
ENDBRANCH   8  31
BRANCH  10  33
ATOM     33  C16 UNK     1      46.436   1.137   9.049  1.00  0.00    -0.002 A 
ATOM     34  C17 UNK     1      47.457   1.738   8.308  1.00  0.00     0.014 A 
ATOM     35  C19 UNK     1      48.786   1.606   8.710  1.00  0.00     0.001 A 
ATOM     36  C21 UNK     1      49.099   0.873   9.855  1.00  0.00     0.000 A 
ATOM     37  C20 UNK     1      48.083   0.272  10.597  1.00  0.00     0.001 A 
ATOM     38  C18 UNK     1      46.753   0.404  10.195  1.00  0.00     0.014 A 
ENDBRANCH  10  33
TORSDOF 10
ENDMDL
MODEL 15
REMARK VINA RESULT:      -6.6      2.003      3.168
REMARK  10 active torsions:
REMARK  status: ('A' for Active; 'I' for Inactive)
REMARK    1  A    between atoms: O2_2  and  C4_15 
REMARK    2  A    between atoms: O2_2  and  C7_18 
REMARK    3  A    between atoms: O3_3  and  C1_12 
REMARK    4  A    between atoms: O4_4  and  C2_13 
REMARK    5  A    between atoms: O5_5  and  C3_14 
REMARK    6  A    between atoms: O6_6  and  C6_17 
REMARK    7  A    between atoms: O9_9  and  C9_20 
REMARK    8  A    between atoms: O10_10  and  C12_23 
REMARK    9  A    between atoms: C5_16  and  C6_17 
REMARK   10  A    between atoms: C14_25  and  C16_27 
ROOT
ATOM      1  O8  UNK     1      43.722   1.317   9.250  1.00  0.00    -0.309 OA
ATOM      2  O11 UNK     1      43.359   5.322   9.900  1.00  0.00    -0.287 OA
ATOM      3  C7  UNK     1      40.093   1.518   9.511  1.00  0.00     0.110 A 
ATOM      4  C8  UNK     1      41.383   1.011   9.351  1.00  0.00     0.078 A 
ATOM      5  C9  UNK     1      39.899   2.881   9.736  1.00  0.00     0.134 A 
ATOM      6  C10 UNK     1      42.479   1.872   9.414  1.00  0.00     0.096 A 
ATOM      7  C11 UNK     1      42.283   3.234   9.639  1.00  0.00     0.084 A 
ATOM      8  C12 UNK     1      40.993   3.745   9.800  1.00  0.00     0.118 A 
ATOM      9  C13 UNK     1      43.456   4.118   9.704  1.00  0.00     0.190 A 
ATOM     10  C14 UNK     1      44.830   2.149   9.301  1.00  0.00     0.090 A 
ATOM     11  C15 UNK     1      44.771   3.473   9.516  1.00  0.00     0.094 A 
ENDROOT
BRANCH   3  12
ATOM     12  O2  UNK     1      39.028   0.668   9.447  1.00  0.00    -0.315 OA
BRANCH  12  13
ATOM     13  C4  UNK     1      39.323  -0.729   9.473  1.00  0.00     0.299 C 
ATOM     14  O1  UNK     1      38.897  -1.334   8.254  1.00  0.00    -0.340 OA
ATOM     15  C5  UNK     1      39.185  -2.727   8.212  1.00  0.00     0.253 C 
ATOM     16  C3  UNK     1      38.437  -3.474   9.310  1.00  0.00     0.189 C 
ATOM     17  C1  UNK     1      38.735  -2.866  10.680  1.00  0.00     0.183 C 
ATOM     18  C2  UNK     1      38.581  -1.345  10.660  1.00  0.00     0.205 C 
BRANCH  15  19
ATOM     19  C6  UNK     1      38.701  -3.137   6.860  1.00  0.00     0.172 C 
ATOM     20  O7  UNK     1      38.366  -4.271   6.548  1.00  0.00    -0.648 OA
BRANCH  19  21
ATOM     21  O6  UNK     1      38.684  -2.077   6.016  1.00  0.00    -0.774 OA
ATOM     22  H10 UNK     1      38.061  -2.212   5.270  1.00  0.00     0.167 HD
ENDBRANCH  19  21
ENDBRANCH  15  19
BRANCH  16  23
ATOM     23  O5  UNK     1      38.858  -4.838   9.304  1.00  0.00    -0.390 OA
ATOM     24  H8  UNK     1      39.826  -4.855   9.398  1.00  0.00     0.210 HD
ENDBRANCH  16  23
BRANCH  17  25
ATOM     25  O3  UNK     1      37.818  -3.425  11.622  1.00  0.00    -0.390 OA
ATOM     26  H6  UNK     1      37.541  -2.715  12.223  1.00  0.00     0.210 HD
ENDBRANCH  17  25
BRANCH  18  27
ATOM     27  O4  UNK     1      39.127  -0.798  11.861  1.00  0.00    -0.388 OA
ATOM     28  H7  UNK     1      38.392  -0.659  12.482  1.00  0.00     0.210 HD
ENDBRANCH  18  27
ENDBRANCH  12  13
ENDBRANCH   3  12
BRANCH   5  29
ATOM     29  O9  UNK     1      38.633   3.369   9.892  1.00  0.00    -0.356 OA
ATOM     30  H12 UNK     1      38.066   2.651  10.224  1.00  0.00     0.218 HD
ENDBRANCH   5  29
BRANCH   8  31
ATOM     31  O10 UNK     1      40.763   5.070  10.021  1.00  0.00    -0.357 OA
ATOM     32  H13 UNK     1      40.962   5.590   9.228  1.00  0.00     0.217 HD
ENDBRANCH   8  31
BRANCH  10  33
ATOM     33  C16 UNK     1      46.117   1.448   9.117  1.00  0.00    -0.002 A 
ATOM     34  C17 UNK     1      46.448   0.363   9.933  1.00  0.00     0.014 A 
ATOM     35  C19 UNK     1      47.663  -0.300   9.757  1.00  0.00     0.001 A 
ATOM     36  C21 UNK     1      48.550   0.119   8.766  1.00  0.00     0.000 A 
ATOM     37  C20 UNK     1      48.222   1.202   7.949  1.00  0.00     0.001 A 
ATOM     38  C18 UNK     1      47.007   1.864   8.125  1.00  0.00     0.014 A 
ENDBRANCH  10  33
TORSDOF 10
ENDMDL
MODEL 16
REMARK VINA RESULT:      -6.6      2.802      3.790
REMARK  10 active torsions:
REMARK  status: ('A' for Active; 'I' for Inactive)
REMARK    1  A    between atoms: O2_2  and  C4_15 
REMARK    2  A    between atoms: O2_2  and  C7_18 
REMARK    3  A    between atoms: O3_3  and  C1_12 
REMARK    4  A    between atoms: O4_4  and  C2_13 
REMARK    5  A    between atoms: O5_5  and  C3_14 
REMARK    6  A    between atoms: O6_6  and  C6_17 
REMARK    7  A    between atoms: O9_9  and  C9_20 
REMARK    8  A    between atoms: O10_10  and  C12_23 
REMARK    9  A    between atoms: C5_16  and  C6_17 
REMARK   10  A    between atoms: C14_25  and  C16_27 
ROOT
ATOM      1  O8  UNK     1      44.298   0.263   9.168  1.00  0.00    -0.309 OA
ATOM      2  O11 UNK     1      43.743   1.770  12.912  1.00  0.00    -0.287 OA
ATOM      3  C7  UNK     1      41.331  -1.633  10.104  1.00  0.00     0.110 A 
ATOM      4  C8  UNK     1      42.414  -1.145   9.373  1.00  0.00     0.078 A 
ATOM      5  C9  UNK     1      41.084  -1.158  11.393  1.00  0.00     0.134 A 
ATOM      6  C10 UNK     1      43.250  -0.178   9.934  1.00  0.00     0.096 A 
ATOM      7  C11 UNK     1      43.001   0.295  11.221  1.00  0.00     0.084 A 
ATOM      8  C12 UNK     1      41.918  -0.192  11.956  1.00  0.00     0.118 A 
ATOM      9  C13 UNK     1      43.900   1.312  11.788  1.00  0.00     0.190 A 
ATOM     10  C14 UNK     1      45.142   1.229   9.696  1.00  0.00     0.090 A 
ATOM     11  C15 UNK     1      45.011   1.758  10.923  1.00  0.00     0.094 A 
ENDROOT
BRANCH   3  12
ATOM     12  O2  UNK     1      40.519  -2.578   9.547  1.00  0.00    -0.315 OA
BRANCH  12  13
ATOM     13  C4  UNK     1      39.414  -2.099   8.781  1.00  0.00     0.299 C 
ATOM     14  O1  UNK     1      38.209  -2.248   9.529  1.00  0.00    -0.340 OA
ATOM     15  C5  UNK     1      37.071  -1.765   8.824  1.00  0.00     0.253 C 
ATOM     16  C3  UNK     1      36.844  -2.558   7.542  1.00  0.00     0.189 C 
ATOM     17  C1  UNK     1      38.103  -2.556   6.674  1.00  0.00     0.183 C 
ATOM     18  C2  UNK     1      39.344  -2.916   7.491  1.00  0.00     0.205 C 
BRANCH  15  19
ATOM     19  C6  UNK     1      35.952  -1.980   9.790  1.00  0.00     0.172 C 
ATOM     20  O7  UNK     1      35.692  -1.251  10.736  1.00  0.00    -0.648 OA
BRANCH  19  21
ATOM     21  O6  UNK     1      35.260  -3.103   9.479  1.00  0.00    -0.774 OA
ATOM     22  H10 UNK     1      35.607  -3.536   8.671  1.00  0.00     0.167 HD
ENDBRANCH  19  21
ENDBRANCH  15  19
BRANCH  16  23
ATOM     23  O5  UNK     1      35.776  -1.955   6.815  1.00  0.00    -0.390 OA
ATOM     24  H8  UNK     1      34.953  -2.419   7.047  1.00  0.00     0.210 HD
ENDBRANCH  16  23
BRANCH  17  25
ATOM     25  O3  UNK     1      37.923  -3.517   5.632  1.00  0.00    -0.390 OA
ATOM     26  H6  UNK     1      37.085  -3.980   5.798  1.00  0.00     0.210 HD
ENDBRANCH  17  25
BRANCH  18  27
ATOM     27  O4  UNK     1      40.514  -2.639   6.721  1.00  0.00    -0.388 OA
ATOM     28  H7  UNK     1      41.208  -3.256   7.008  1.00  0.00     0.210 HD
ENDBRANCH  18  27
ENDBRANCH  12  13
ENDBRANCH   3  12
BRANCH   5  29
ATOM     29  O9  UNK     1      40.022  -1.641  12.102  1.00  0.00    -0.356 OA
ATOM     30  H12 UNK     1      40.363  -2.127  12.873  1.00  0.00     0.218 HD
ENDBRANCH   5  29
BRANCH   8  31
ATOM     31  O10 UNK     1      41.645   0.248  13.217  1.00  0.00    -0.357 OA
ATOM     32  H13 UNK     1      42.327  -0.047  13.839  1.00  0.00     0.217 HD
ENDBRANCH   8  31
BRANCH  10  33
ATOM     33  C16 UNK     1      46.238   1.629   8.790  1.00  0.00    -0.002 A 
ATOM     34  C17 UNK     1      45.949   2.232   7.563  1.00  0.00     0.014 A 
ATOM     35  C19 UNK     1      46.985   2.611   6.709  1.00  0.00     0.001 A 
ATOM     36  C21 UNK     1      48.311   2.388   7.078  1.00  0.00     0.000 A 
ATOM     37  C20 UNK     1      48.603   1.786   8.302  1.00  0.00     0.001 A 
ATOM     38  C18 UNK     1      47.567   1.408   9.157  1.00  0.00     0.014 A 
ENDBRANCH  10  33
TORSDOF 10
ENDMDL
MODEL 17
REMARK VINA RESULT:      -6.6      3.816      5.784
REMARK  10 active torsions:
REMARK  status: ('A' for Active; 'I' for Inactive)
REMARK    1  A    between atoms: O2_2  and  C4_15 
REMARK    2  A    between atoms: O2_2  and  C7_18 
REMARK    3  A    between atoms: O3_3  and  C1_12 
REMARK    4  A    between atoms: O4_4  and  C2_13 
REMARK    5  A    between atoms: O5_5  and  C3_14 
REMARK    6  A    between atoms: O6_6  and  C6_17 
REMARK    7  A    between atoms: O9_9  and  C9_20 
REMARK    8  A    between atoms: O10_10  and  C12_23 
REMARK    9  A    between atoms: C5_16  and  C6_17 
REMARK   10  A    between atoms: C14_25  and  C16_27 
ROOT
ATOM      1  O8  UNK     1      41.284  -0.640   8.880  1.00  0.00    -0.309 OA
ATOM      2  O11 UNK     1      38.761   1.822   6.838  1.00  0.00    -0.287 OA
ATOM      3  C7  UNK     1      38.176  -2.472   9.389  1.00  0.00     0.110 A 
ATOM      4  C8  UNK     1      39.522  -2.110   9.437  1.00  0.00     0.078 A 
ATOM      5  C9  UNK     1      37.259  -1.672   8.704  1.00  0.00     0.134 A 
ATOM      6  C10 UNK     1      39.950  -0.945   8.797  1.00  0.00     0.096 A 
ATOM      7  C11 UNK     1      39.032  -0.148   8.115  1.00  0.00     0.084 A 
ATOM      8  C12 UNK     1      37.683  -0.508   8.065  1.00  0.00     0.118 A 
ATOM      9  C13 UNK     1      39.510   1.075   7.452  1.00  0.00     0.190 A 
ATOM     10  C14 UNK     1      41.740   0.507   8.248  1.00  0.00     0.090 A 
ATOM     11  C15 UNK     1      40.956   1.357   7.566  1.00  0.00     0.094 A 
ENDROOT
BRANCH   3  12
ATOM     12  O2  UNK     1      37.768  -3.612  10.016  1.00  0.00    -0.315 OA
BRANCH  12  13
ATOM     13  C4  UNK     1      37.670  -4.786   9.209  1.00  0.00     0.299 C 
ATOM     14  O1  UNK     1      37.735  -4.429   7.830  1.00  0.00    -0.340 OA
ATOM     15  C5  UNK     1      37.665  -5.563   6.973  1.00  0.00     0.253 C 
ATOM     16  C3  UNK     1      36.334  -6.289   7.134  1.00  0.00     0.189 C 
ATOM     17  C1  UNK     1      36.091  -6.657   8.597  1.00  0.00     0.183 C 
ATOM     18  C2  UNK     1      36.335  -5.463   9.521  1.00  0.00     0.205 C 
BRANCH  15  19
ATOM     19  C6  UNK     1      37.789  -4.970   5.608  1.00  0.00     0.172 C 
ATOM     20  O7  UNK     1      37.141  -5.315   4.631  1.00  0.00    -0.648 OA
BRANCH  19  21
ATOM     21  O6  UNK     1      38.727  -3.991   5.595  1.00  0.00    -0.774 OA
ATOM     22  H10 UNK     1      38.773  -3.539   4.725  1.00  0.00     0.167 HD
ENDBRANCH  19  21
ENDBRANCH  15  19
BRANCH  16  23
ATOM     23  O5  UNK     1      36.367  -7.482   6.352  1.00  0.00    -0.390 OA
ATOM     24  H8  UNK     1      35.469  -7.854   6.332  1.00  0.00     0.210 HD
ENDBRANCH  16  23
BRANCH  17  25
ATOM     25  O3  UNK     1      34.735  -7.089   8.725  1.00  0.00    -0.390 OA
ATOM     26  H6  UNK     1      34.410  -7.309   7.836  1.00  0.00     0.210 HD
ENDBRANCH  17  25
BRANCH  18  27
ATOM     27  O4  UNK     1      36.366  -5.911  10.876  1.00  0.00    -0.388 OA
ATOM     28  H7  UNK     1      35.749  -6.657  10.954  1.00  0.00     0.210 HD
ENDBRANCH  18  27
ENDBRANCH  12  13
ENDBRANCH   3  12
BRANCH   5  29
ATOM     29  O9  UNK     1      35.943  -2.034   8.663  1.00  0.00    -0.356 OA
ATOM     30  H12 UNK     1      35.887  -3.002   8.749  1.00  0.00     0.218 HD
ENDBRANCH   5  29
BRANCH   8  31
ATOM     31  O10 UNK     1      36.759   0.247   7.407  1.00  0.00    -0.357 OA
ATOM     32  H13 UNK     1      35.867   0.069   7.743  1.00  0.00     0.217 HD
ENDBRANCH   8  31
BRANCH  10  33
ATOM     33  C16 UNK     1      43.190   0.743   8.404  1.00  0.00    -0.002 A 
ATOM     34  C17 UNK     1      43.895   1.446   7.424  1.00  0.00     0.014 A 
ATOM     35  C19 UNK     1      45.265   1.669   7.571  1.00  0.00     0.001 A 
ATOM     36  C21 UNK     1      45.933   1.190   8.698  1.00  0.00     0.000 A 
ATOM     37  C20 UNK     1      45.231   0.487   9.678  1.00  0.00     0.001 A 
ATOM     38  C18 UNK     1      43.862   0.265   9.530  1.00  0.00     0.014 A 
ENDBRANCH  10  33
TORSDOF 10
ENDMDL
MODEL 18
REMARK VINA RESULT:      -6.5      2.510      3.393
REMARK  10 active torsions:
REMARK  status: ('A' for Active; 'I' for Inactive)
REMARK    1  A    between atoms: O2_2  and  C4_15 
REMARK    2  A    between atoms: O2_2  and  C7_18 
REMARK    3  A    between atoms: O3_3  and  C1_12 
REMARK    4  A    between atoms: O4_4  and  C2_13 
REMARK    5  A    between atoms: O5_5  and  C3_14 
REMARK    6  A    between atoms: O6_6  and  C6_17 
REMARK    7  A    between atoms: O9_9  and  C9_20 
REMARK    8  A    between atoms: O10_10  and  C12_23 
REMARK    9  A    between atoms: C5_16  and  C6_17 
REMARK   10  A    between atoms: C14_25  and  C16_27 
ROOT
ATOM      1  O8  UNK     1      45.175   1.057   8.961  1.00  0.00    -0.309 OA
ATOM      2  O11 UNK     1      44.844   2.368  12.804  1.00  0.00    -0.287 OA
ATOM      3  C7  UNK     1      42.192  -0.796   9.933  1.00  0.00     0.110 A 
ATOM      4  C8  UNK     1      43.256  -0.301   9.179  1.00  0.00     0.078 A 
ATOM      5  C9  UNK     1      42.020  -0.386  11.256  1.00  0.00     0.134 A 
ATOM      6  C10 UNK     1      44.149   0.606   9.751  1.00  0.00     0.096 A 
ATOM      7  C11 UNK     1      43.976   1.014  11.072  1.00  0.00     0.084 A 
ATOM      8  C12 UNK     1      42.911   0.520  11.831  1.00  0.00     0.118 A 
ATOM      9  C13 UNK     1      44.933   1.969  11.651  1.00  0.00     0.190 A 
ATOM     10  C14 UNK     1      46.074   1.965   9.500  1.00  0.00     0.090 A 
ATOM     11  C15 UNK     1      46.017   2.428  10.759  1.00  0.00     0.094 A 
ENDROOT
BRANCH   3  12
ATOM     12  O2  UNK     1      41.324  -1.682   9.365  1.00  0.00    -0.315 OA
BRANCH  12  13
ATOM     13  C4  UNK     1      40.211  -1.126   8.664  1.00  0.00     0.299 C 
ATOM     14  O1  UNK     1      39.259  -0.620   9.597  1.00  0.00    -0.340 OA
ATOM     15  C5  UNK     1      38.133  -0.031   8.956  1.00  0.00     0.253 C 
ATOM     16  C3  UNK     1      37.372  -1.062   8.130  1.00  0.00     0.189 C 
ATOM     17  C1  UNK     1      38.304  -1.755   7.136  1.00  0.00     0.183 C 
ATOM     18  C2  UNK     1      39.587  -2.234   7.815  1.00  0.00     0.205 C 
BRANCH  15  19
ATOM     19  C6  UNK     1      37.304   0.456  10.098  1.00  0.00     0.172 C 
ATOM     20  O7  UNK     1      36.196   0.962   9.996  1.00  0.00    -0.648 OA
BRANCH  19  21
ATOM     21  O6  UNK     1      37.949   0.265  11.275  1.00  0.00    -0.774 OA
ATOM     22  H10 UNK     1      38.924   0.269  11.163  1.00  0.00     0.167 HD
ENDBRANCH  19  21
ENDBRANCH  15  19
BRANCH  16  23
ATOM     23  O5  UNK     1      36.335  -0.397   7.411  1.00  0.00    -0.390 OA
ATOM     24  H8  UNK     1      35.976   0.306   7.980  1.00  0.00     0.210 HD
ENDBRANCH  16  23
BRANCH  17  25
ATOM     25  O3  UNK     1      37.609  -2.875   6.585  1.00  0.00    -0.390 OA
ATOM     26  H6  UNK     1      37.205  -2.591   5.749  1.00  0.00     0.210 HD
ENDBRANCH  17  25
BRANCH  18  27
ATOM     27  O4  UNK     1      40.534  -2.622   6.819  1.00  0.00    -0.388 OA
ATOM     28  H7  UNK     1      40.480  -3.587   6.720  1.00  0.00     0.210 HD
ENDBRANCH  18  27
ENDBRANCH  12  13
ENDBRANCH   3  12
BRANCH   5  29
ATOM     29  O9  UNK     1      40.977  -0.876  11.987  1.00  0.00    -0.356 OA
ATOM     30  H12 UNK     1      41.180  -1.794  12.238  1.00  0.00     0.218 HD
ENDBRANCH   5  29
BRANCH   8  31
ATOM     31  O10 UNK     1      42.711   0.897  13.126  1.00  0.00    -0.357 OA
ATOM     32  H13 UNK     1      42.942   1.830  13.252  1.00  0.00     0.217 HD
ENDBRANCH   8  31
BRANCH  10  33
ATOM     33  C16 UNK     1      47.140   2.381   8.567  1.00  0.00    -0.002 A 
ATOM     34  C17 UNK     1      48.419   2.674   9.048  1.00  0.00     0.014 A 
ATOM     35  C19 UNK     1      49.426   3.066   8.165  1.00  0.00     0.001 A 
ATOM     36  C21 UNK     1      49.159   3.165   6.800  1.00  0.00     0.000 A 
ATOM     37  C20 UNK     1      47.883   2.873   6.317  1.00  0.00     0.001 A 
ATOM     38  C18 UNK     1      46.876   2.482   7.199  1.00  0.00     0.014 A 
ENDBRANCH  10  33
TORSDOF 10
ENDMDL
MODEL 19
REMARK VINA RESULT:      -6.4      2.923      7.638
REMARK  10 active torsions:
REMARK  status: ('A' for Active; 'I' for Inactive)
REMARK    1  A    between atoms: O2_2  and  C4_15 
REMARK    2  A    between atoms: O2_2  and  C7_18 
REMARK    3  A    between atoms: O3_3  and  C1_12 
REMARK    4  A    between atoms: O4_4  and  C2_13 
REMARK    5  A    between atoms: O5_5  and  C3_14 
REMARK    6  A    between atoms: O6_6  and  C6_17 
REMARK    7  A    between atoms: O9_9  and  C9_20 
REMARK    8  A    between atoms: O10_10  and  C12_23 
REMARK    9  A    between atoms: C5_16  and  C6_17 
REMARK   10  A    between atoms: C14_25  and  C16_27 
ROOT
ATOM      1  O8  UNK     1      38.913  -0.622   7.577  1.00  0.00    -0.309 OA
ATOM      2  O11 UNK     1      36.363   1.004  10.308  1.00  0.00    -0.287 OA
ATOM      3  C7  UNK     1      40.900   2.274   8.549  1.00  0.00     0.110 A 
ATOM      4  C8  UNK     1      40.494   1.099   7.916  1.00  0.00     0.078 A 
ATOM      5  C9  UNK     1      40.074   2.881   9.496  1.00  0.00     0.134 A 
ATOM      6  C10 UNK     1      39.258   0.532   8.233  1.00  0.00     0.096 A 
ATOM      7  C11 UNK     1      38.435   1.141   9.178  1.00  0.00     0.084 A 
ATOM      8  C12 UNK     1      38.838   2.317   9.814  1.00  0.00     0.118 A 
ATOM      9  C13 UNK     1      37.137   0.523   9.491  1.00  0.00     0.190 A 
ATOM     10  C14 UNK     1      37.694  -1.212   7.877  1.00  0.00     0.090 A 
ATOM     11  C15 UNK     1      36.813  -0.720   8.762  1.00  0.00     0.094 A 
ENDROOT
BRANCH   3  12
ATOM     12  O2  UNK     1      42.109   2.819   8.233  1.00  0.00    -0.315 OA
BRANCH  12  13
ATOM     13  C4  UNK     1      43.246   1.961   8.341  1.00  0.00     0.299 C 
ATOM     14  O1  UNK     1      43.719   1.957   9.686  1.00  0.00    -0.340 OA
ATOM     15  C5  UNK     1      44.841   1.099   9.862  1.00  0.00     0.253 C 
ATOM     16  C3  UNK     1      46.025   1.567   9.024  1.00  0.00     0.189 C 
ATOM     17  C1  UNK     1      45.629   1.703   7.554  1.00  0.00     0.183 C 
ATOM     18  C2  UNK     1      44.327   2.489   7.397  1.00  0.00     0.205 C 
BRANCH  15  19
ATOM     19  C6  UNK     1      45.139   1.217  11.321  1.00  0.00     0.172 C 
ATOM     20  O7  UNK     1      46.244   1.086  11.825  1.00  0.00    -0.648 OA
BRANCH  19  21
ATOM     21  O6  UNK     1      44.009   1.489  12.019  1.00  0.00    -0.774 OA
ATOM     22  H10 UNK     1      43.341   1.953  11.470  1.00  0.00     0.167 HD
ENDBRANCH  19  21
ENDBRANCH  15  19
BRANCH  16  23
ATOM     23  O5  UNK     1      47.074   0.607   9.137  1.00  0.00    -0.390 OA
ATOM     24  H8  UNK     1      47.911   1.087   9.260  1.00  0.00     0.210 HD
ENDBRANCH  16  23
BRANCH  17  25
ATOM     25  O3  UNK     1      46.683   2.387   6.873  1.00  0.00    -0.390 OA
ATOM     26  H6  UNK     1      46.581   2.214   5.923  1.00  0.00     0.210 HD
ENDBRANCH  17  25
BRANCH  18  27
ATOM     27  O4  UNK     1      43.853   2.358   6.057  1.00  0.00    -0.388 OA
ATOM     28  H7  UNK     1      43.555   1.441   5.938  1.00  0.00     0.210 HD
ENDBRANCH  18  27
ENDBRANCH  12  13
ENDBRANCH   3  12
BRANCH   5  29
ATOM     29  O9  UNK     1      40.479   4.031  10.110  1.00  0.00    -0.356 OA
ATOM     30  H12 UNK     1      40.318   4.776   9.506  1.00  0.00     0.218 HD
ENDBRANCH   5  29
BRANCH   8  31
ATOM     31  O10 UNK     1      38.059   2.940  10.744  1.00  0.00    -0.357 OA
ATOM     32  H13 UNK     1      37.324   2.369  11.013  1.00  0.00     0.217 HD
ENDBRANCH   8  31
BRANCH  10  33
ATOM     33  C16 UNK     1      37.420  -2.446   7.112  1.00  0.00    -0.002 A 
ATOM     34  C17 UNK     1      38.470  -3.296   6.753  1.00  0.00     0.014 A 
ATOM     35  C19 UNK     1      38.211  -4.461   6.031  1.00  0.00     0.001 A 
ATOM     36  C21 UNK     1      36.903  -4.782   5.668  1.00  0.00     0.000 A 
ATOM     37  C20 UNK     1      35.853  -3.936   6.025  1.00  0.00     0.001 A 
ATOM     38  C18 UNK     1      36.112  -2.770   6.746  1.00  0.00     0.014 A 
ENDBRANCH  10  33
TORSDOF 10
ENDMDL
