MODEL 1
REMARK VINA RESULT:      -7.2      0.000      0.000
REMARK  10 active torsions:
REMARK  status: ('A' for Active; 'I' for Inactive)
REMARK    1  A    between atoms: O2_2  and  C4_15 
REMARK    2  A    between atoms: O2_2  and  C7_18 
REMARK    3  A    between atoms: O3_3  and  C1_12 
REMARK    4  A    between atoms: O4_4  and  C2_13 
REMARK    5  A    between atoms: O5_5  and  C3_14 
REMARK    6  A    between atoms: O6_6  and  C6_17 
REMARK    7  A    between atoms: O9_9  and  C9_20 
REMARK    8  A    between atoms: O10_10  and  C12_23 
REMARK    9  A    between atoms: C5_16  and  C6_17 
REMARK   10  A    between atoms: C14_25  and  C16_27 
ROOT
ATOM      1  O8  UNK     1      38.096  -6.479  -7.376  1.00  0.00    -0.309 OA
ATOM      2  O11 UNK     1      36.107  -7.460  -3.958  1.00  0.00    -0.287 OA
ATOM      3  C7  UNK     1      34.688  -5.863  -8.510  1.00  0.00     0.110 A 
ATOM      4  C8  UNK     1      36.079  -5.968  -8.493  1.00  0.00     0.078 A 
ATOM      5  C9  UNK     1      33.947  -6.182  -7.371  1.00  0.00     0.134 A 
ATOM      6  C10 UNK     1      36.728  -6.394  -7.333  1.00  0.00     0.096 A 
ATOM      7  C11 UNK     1      35.985  -6.713  -6.197  1.00  0.00     0.084 A 
ATOM      8  C12 UNK     1      34.592  -6.608  -6.211  1.00  0.00     0.118 A 
ATOM      9  C13 UNK     1      36.695  -7.161  -4.989  1.00  0.00     0.190 A 
ATOM     10  C14 UNK     1      38.768  -6.892  -6.236  1.00  0.00     0.090 A 
ATOM     11  C15 UNK     1      38.167  -7.231  -5.085  1.00  0.00     0.094 A 
ENDROOT
BRANCH   3  12
ATOM     12  O2  UNK     1      34.063  -5.445  -9.649  1.00  0.00    -0.315 OA
BRANCH  12  13
ATOM     13  C4  UNK     1      33.844  -4.040  -9.779  1.00  0.00     0.299 C 
ATOM     14  O1  UNK     1      32.502  -3.727  -9.415  1.00  0.00    -0.340 OA
ATOM     15  C5  UNK     1      32.229  -2.332  -9.504  1.00  0.00     0.253 C 
ATOM     16  C3  UNK     1      32.380  -1.835 -10.936  1.00  0.00     0.189 C 
ATOM     17  C1  UNK     1      33.760  -2.188 -11.490  1.00  0.00     0.183 C 
ATOM     18  C2  UNK     1      34.105  -3.655 -11.236  1.00  0.00     0.205 C 
BRANCH  15  19
ATOM     19  C6  UNK     1      30.809  -2.231  -9.049  1.00  0.00     0.172 C 
ATOM     20  O7  UNK     1      30.429  -2.383  -7.898  1.00  0.00    -0.648 OA
BRANCH  19  21
ATOM     21  O6  UNK     1      29.992  -1.949 -10.092  1.00  0.00    -0.774 OA
ATOM     22  H10 UNK     1      30.265  -2.417 -10.910  1.00  0.00     0.167 HD
ENDBRANCH  19  21
ENDBRANCH  15  19
BRANCH  16  23
ATOM     23  O5  UNK     1      32.222  -0.417 -10.947  1.00  0.00    -0.390 OA
ATOM     24  H8  UNK     1      32.987  -0.032 -11.407  1.00  0.00     0.210 HD
ENDBRANCH  16  23
BRANCH  17  25
ATOM     25  O3  UNK     1      33.750  -1.938 -12.897  1.00  0.00    -0.390 OA
ATOM     26  H6  UNK     1      32.940  -1.443 -13.103  1.00  0.00     0.210 HD
ENDBRANCH  17  25
BRANCH  18  27
ATOM     27  O4  UNK     1      35.488  -3.872 -11.515  1.00  0.00    -0.388 OA
ATOM     28  H7  UNK     1      35.590  -3.920 -12.480  1.00  0.00     0.210 HD
ENDBRANCH  18  27
ENDBRANCH  12  13
ENDBRANCH   3  12
BRANCH   5  29
ATOM     29  O9  UNK     1      32.586  -6.077  -7.397  1.00  0.00    -0.356 OA
ATOM     30  H12 UNK     1      32.306  -5.937  -8.318  1.00  0.00     0.218 HD
ENDBRANCH   5  29
BRANCH   8  31
ATOM     31  O10 UNK     1      33.834  -6.912  -5.119  1.00  0.00    -0.357 OA
ATOM     32  H13 UNK     1      32.979  -6.458  -5.158  1.00  0.00     0.217 HD
ENDBRANCH   8  31
BRANCH  10  33
ATOM     33  C16 UNK     1      40.236  -6.952  -6.393  1.00  0.00    -0.002 A 
ATOM     34  C17 UNK     1      40.796  -7.515  -7.543  1.00  0.00     0.014 A 
ATOM     35  C19 UNK     1      42.182  -7.570  -7.692  1.00  0.00     0.001 A 
ATOM     36  C21 UNK     1      43.012  -7.063  -6.693  1.00  0.00     0.000 A 
ATOM     37  C20 UNK     1      42.456  -6.500  -5.543  1.00  0.00     0.001 A 
ATOM     38  C18 UNK     1      41.070  -6.445  -5.395  1.00  0.00     0.014 A 
ENDBRANCH  10  33
TORSDOF 10
ENDMDL
MODEL 2
REMARK VINA RESULT:      -7.1     18.262     20.568
REMARK  10 active torsions:
REMARK  status: ('A' for Active; 'I' for Inactive)
REMARK    1  A    between atoms: O2_2  and  C4_15 
REMARK    2  A    between atoms: O2_2  and  C7_18 
REMARK    3  A    between atoms: O3_3  and  C1_12 
REMARK    4  A    between atoms: O4_4  and  C2_13 
REMARK    5  A    between atoms: O5_5  and  C3_14 
REMARK    6  A    between atoms: O6_6  and  C6_17 
REMARK    7  A    between atoms: O9_9  and  C9_20 
REMARK    8  A    between atoms: O10_10  and  C12_23 
REMARK    9  A    between atoms: C5_16  and  C6_17 
REMARK   10  A    between atoms: C14_25  and  C16_27 
ROOT
ATOM      1  O8  UNK     1      44.187   2.273   8.128  1.00  0.00    -0.309 OA
ATOM      2  O11 UNK     1      42.613   5.504  10.048  1.00  0.00    -0.287 OA
ATOM      3  C7  UNK     1      40.727   1.154   8.372  1.00  0.00     0.110 A 
ATOM      4  C8  UNK     1      42.091   1.187   8.079  1.00  0.00     0.078 A 
ATOM      5  C9  UNK     1      40.126   2.230   9.027  1.00  0.00     0.134 A 
ATOM      6  C10 UNK     1      42.852   2.299   8.442  1.00  0.00     0.096 A 
ATOM      7  C11 UNK     1      42.249   3.371   9.097  1.00  0.00     0.084 A 
ATOM      8  C12 UNK     1      40.884   3.342   9.392  1.00  0.00     0.118 A 
ATOM      9  C13 UNK     1      43.075   4.530   9.470  1.00  0.00     0.190 A 
ATOM     10  C14 UNK     1      44.967   3.368   8.470  1.00  0.00     0.090 A 
ATOM     11  C15 UNK     1      44.505   4.456   9.106  1.00  0.00     0.094 A 
ENDROOT
BRANCH   3  12
ATOM     12  O2  UNK     1      39.992   0.063   8.012  1.00  0.00    -0.315 OA
BRANCH  12  13
ATOM     13  C4  UNK     1      39.729  -0.897   9.037  1.00  0.00     0.299 C 
ATOM     14  O1  UNK     1      39.589  -0.235  10.292  1.00  0.00    -0.340 OA
ATOM     15  C5  UNK     1      39.302  -1.140  11.352  1.00  0.00     0.253 C 
ATOM     16  C3  UNK     1      40.443  -2.131  11.549  1.00  0.00     0.189 C 
ATOM     17  C1  UNK     1      40.762  -2.858  10.242  1.00  0.00     0.183 C 
ATOM     18  C2  UNK     1      40.902  -1.876   9.078  1.00  0.00     0.205 C 
BRANCH  15  19
ATOM     19  C6  UNK     1      39.161  -0.244  12.539  1.00  0.00     0.172 C 
ATOM     20  O7  UNK     1      39.217  -0.609  13.704  1.00  0.00    -0.648 OA
BRANCH  19  21
ATOM     21  O6  UNK     1      38.957   1.038  12.150  1.00  0.00    -0.774 OA
ATOM     22  H10 UNK     1      38.993   1.661  12.907  1.00  0.00     0.167 HD
ENDBRANCH  19  21
ENDBRANCH  15  19
BRANCH  16  23
ATOM     23  O5  UNK     1      40.052  -3.089  12.531  1.00  0.00    -0.390 OA
ATOM     24  H8  UNK     1      40.769  -3.740  12.621  1.00  0.00     0.210 HD
ENDBRANCH  16  23
BRANCH  17  25
ATOM     25  O3  UNK     1      41.990  -3.566  10.418  1.00  0.00    -0.390 OA
ATOM     26  H6  UNK     1      41.981  -4.328   9.815  1.00  0.00     0.210 HD
ENDBRANCH  17  25
BRANCH  18  27
ATOM     27  O4  UNK     1      40.925  -2.600   7.848  1.00  0.00    -0.388 OA
ATOM     28  H7  UNK     1      40.545  -3.478   8.016  1.00  0.00     0.210 HD
ENDBRANCH  18  27
ENDBRANCH  12  13
ENDBRANCH   3  12
BRANCH   5  29
ATOM     29  O9  UNK     1      38.791   2.190   9.311  1.00  0.00    -0.356 OA
ATOM     30  H12 UNK     1      38.576   2.945   9.886  1.00  0.00     0.218 HD
ENDBRANCH   5  29
BRANCH   8  31
ATOM     31  O10 UNK     1      40.261   4.373  10.030  1.00  0.00    -0.357 OA
ATOM     32  H13 UNK     1      39.311   4.374   9.836  1.00  0.00     0.217 HD
ENDBRANCH   8  31
BRANCH  10  33
ATOM     33  C16 UNK     1      46.388   3.234   8.091  1.00  0.00    -0.002 A 
ATOM     34  C17 UNK     1      46.744   2.506   6.952  1.00  0.00     0.014 A 
ATOM     35  C19 UNK     1      48.087   2.381   6.593  1.00  0.00     0.001 A 
ATOM     36  C21 UNK     1      49.076   2.983   7.369  1.00  0.00     0.000 A 
ATOM     37  C20 UNK     1      48.724   3.711   8.507  1.00  0.00     0.001 A 
ATOM     38  C18 UNK     1      47.382   3.836   8.866  1.00  0.00     0.014 A 
ENDBRANCH  10  33
TORSDOF 10
ENDMDL
MODEL 3
REMARK VINA RESULT:      -7.0     13.326     16.872
REMARK  10 active torsions:
REMARK  status: ('A' for Active; 'I' for Inactive)
REMARK    1  A    between atoms: O2_2  and  C4_15 
REMARK    2  A    between atoms: O2_2  and  C7_18 
REMARK    3  A    between atoms: O3_3  and  C1_12 
REMARK    4  A    between atoms: O4_4  and  C2_13 
REMARK    5  A    between atoms: O5_5  and  C3_14 
REMARK    6  A    between atoms: O6_6  and  C6_17 
REMARK    7  A    between atoms: O9_9  and  C9_20 
REMARK    8  A    between atoms: O10_10  and  C12_23 
REMARK    9  A    between atoms: C5_16  and  C6_17 
REMARK   10  A    between atoms: C14_25  and  C16_27 
ROOT
ATOM      1  O8  UNK     1      37.728  -5.592   5.694  1.00  0.00    -0.309 OA
ATOM      2  O11 UNK     1      37.020  -7.087   9.417  1.00  0.00    -0.287 OA
ATOM      3  C7  UNK     1      37.580  -2.455   7.542  1.00  0.00     0.110 A 
ATOM      4  C8  UNK     1      37.708  -3.372   6.499  1.00  0.00     0.078 A 
ATOM      5  C9  UNK     1      37.338  -2.901   8.842  1.00  0.00     0.134 A 
ATOM      6  C10 UNK     1      37.594  -4.739   6.759  1.00  0.00     0.096 A 
ATOM      7  C11 UNK     1      37.352  -5.182   8.058  1.00  0.00     0.084 A 
ATOM      8  C12 UNK     1      37.223  -4.266   9.105  1.00  0.00     0.118 A 
ATOM      9  C13 UNK     1      37.234  -6.627   8.303  1.00  0.00     0.190 A 
ATOM     10  C14 UNK     1      37.626  -6.956   5.924  1.00  0.00     0.090 A 
ATOM     11  C15 UNK     1      37.390  -7.504   7.125  1.00  0.00     0.094 A 
ENDROOT
BRANCH   3  12
ATOM     12  O2  UNK     1      37.694  -1.121   7.277  1.00  0.00    -0.315 OA
BRANCH  12  13
ATOM     13  C4  UNK     1      39.016  -0.581   7.271  1.00  0.00     0.299 C 
ATOM     14  O1  UNK     1      39.779  -1.165   8.323  1.00  0.00    -0.340 OA
ATOM     15  C5  UNK     1      41.118  -0.682   8.354  1.00  0.00     0.253 C 
ATOM     16  C3  UNK     1      41.151   0.818   8.622  1.00  0.00     0.189 C 
ATOM     17  C1  UNK     1      40.291   1.570   7.607  1.00  0.00     0.183 C 
ATOM     18  C2  UNK     1      38.909   0.931   7.466  1.00  0.00     0.205 C 
BRANCH  15  19
ATOM     19  C6  UNK     1      41.731  -1.441   9.485  1.00  0.00     0.172 C 
ATOM     20  O7  UNK     1      41.997  -0.974  10.582  1.00  0.00    -0.648 OA
BRANCH  19  21
ATOM     21  O6  UNK     1      41.960  -2.729   9.128  1.00  0.00    -0.774 OA
ATOM     22  H10 UNK     1      41.136  -3.184   8.852  1.00  0.00     0.167 HD
ENDBRANCH  19  21
ENDBRANCH  15  19
BRANCH  16  23
ATOM     23  O5  UNK     1      42.500   1.271   8.516  1.00  0.00    -0.390 OA
ATOM     24  H8  UNK     1      43.087   0.514   8.681  1.00  0.00     0.210 HD
ENDBRANCH  16  23
BRANCH  17  25
ATOM     25  O3  UNK     1      40.149   2.918   8.059  1.00  0.00    -0.390 OA
ATOM     26  H6  UNK     1      39.711   3.422   7.353  1.00  0.00     0.210 HD
ENDBRANCH  17  25
BRANCH  18  27
ATOM     27  O4  UNK     1      38.245   1.483   6.329  1.00  0.00    -0.388 OA
ATOM     28  H7  UNK     1      38.841   2.138   5.929  1.00  0.00     0.210 HD
ENDBRANCH  18  27
ENDBRANCH  12  13
ENDBRANCH   3  12
BRANCH   5  29
ATOM     29  O9  UNK     1      37.214  -1.997   9.857  1.00  0.00    -0.356 OA
ATOM     30  H12 UNK     1      38.013  -1.440   9.872  1.00  0.00     0.218 HD
ENDBRANCH   5  29
BRANCH   8  31
ATOM     31  O10 UNK     1      36.987  -4.663  10.387  1.00  0.00    -0.357 OA
ATOM     32  H13 UNK     1      37.184  -5.606  10.497  1.00  0.00     0.217 HD
ENDBRANCH   8  31
BRANCH  10  33
ATOM     33  C16 UNK     1      37.782  -7.782   4.709  1.00  0.00    -0.002 A 
ATOM     34  C17 UNK     1      38.961  -8.501   4.496  1.00  0.00     0.014 A 
ATOM     35  C19 UNK     1      39.107  -9.282   3.349  1.00  0.00     0.001 A 
ATOM     36  C21 UNK     1      38.075  -9.348   2.413  1.00  0.00     0.000 A 
ATOM     37  C20 UNK     1      36.897  -8.631   2.622  1.00  0.00     0.001 A 
ATOM     38  C18 UNK     1      36.751  -7.850   3.769  1.00  0.00     0.014 A 
ENDBRANCH  10  33
TORSDOF 10
ENDMDL
MODEL 4
REMARK VINA RESULT:      -7.0     19.178     21.870
REMARK  10 active torsions:
REMARK  status: ('A' for Active; 'I' for Inactive)
REMARK    1  A    between atoms: O2_2  and  C4_15 
REMARK    2  A    between atoms: O2_2  and  C7_18 
REMARK    3  A    between atoms: O3_3  and  C1_12 
REMARK    4  A    between atoms: O4_4  and  C2_13 
REMARK    5  A    between atoms: O5_5  and  C3_14 
REMARK    6  A    between atoms: O6_6  and  C6_17 
REMARK    7  A    between atoms: O9_9  and  C9_20 
REMARK    8  A    between atoms: O10_10  and  C12_23 
REMARK    9  A    between atoms: C5_16  and  C6_17 
REMARK   10  A    between atoms: C14_25  and  C16_27 
ROOT
ATOM      1  O8  UNK     1      45.124  12.843 -10.719  1.00  0.00    -0.309 OA
ATOM      2  O11 UNK     1      42.729   9.551 -10.902  1.00  0.00    -0.287 OA
ATOM      3  C7  UNK     1      47.071  10.611  -8.596  1.00  0.00     0.110 A 
ATOM      4  C8  UNK     1      46.661  11.739  -9.307  1.00  0.00     0.078 A 
ATOM      5  C9  UNK     1      46.296   9.450  -8.618  1.00  0.00     0.134 A 
ATOM      6  C10 UNK     1      45.475  11.703 -10.041  1.00  0.00     0.096 A 
ATOM      7  C11 UNK     1      44.703  10.543 -10.061  1.00  0.00     0.084 A 
ATOM      8  C12 UNK     1      45.110   9.411  -9.350  1.00  0.00     0.118 A 
ATOM      9  C13 UNK     1      43.457  10.534 -10.842  1.00  0.00     0.190 A 
ATOM     10  C14 UNK     1      43.954  12.834 -11.463  1.00  0.00     0.090 A 
ATOM     11  C15 UNK     1      43.125  11.783 -11.557  1.00  0.00     0.094 A 
ENDROOT
BRANCH   3  12
ATOM     12  O2  UNK     1      48.232  10.655  -7.881  1.00  0.00    -0.315 OA
BRANCH  12  13
ATOM     13  C4  UNK     1      48.141  11.144  -6.543  1.00  0.00     0.299 C 
ATOM     14  O1  UNK     1      48.624  12.484  -6.486  1.00  0.00    -0.340 OA
ATOM     15  C5  UNK     1      48.538  13.036  -5.177  1.00  0.00     0.253 C 
ATOM     16  C3  UNK     1      49.407  12.257  -4.196  1.00  0.00     0.189 C 
ATOM     17  C1  UNK     1      49.051  10.771  -4.219  1.00  0.00     0.183 C 
ATOM     18  C2  UNK     1      48.986  10.235  -5.650  1.00  0.00     0.205 C 
BRANCH  15  19
ATOM     19  C6  UNK     1      49.049  14.428  -5.356  1.00  0.00     0.172 C 
ATOM     20  O7  UNK     1      48.741  15.384  -4.661  1.00  0.00    -0.648 OA
BRANCH  19  21
ATOM     21  O6  UNK     1      49.906  14.492  -6.405  1.00  0.00    -0.774 OA
ATOM     22  H10 UNK     1      50.802  14.173  -6.166  1.00  0.00     0.167 HD
ENDBRANCH  19  21
ENDBRANCH  15  19
BRANCH  16  23
ATOM     23  O5  UNK     1      49.185  12.769  -2.883  1.00  0.00    -0.390 OA
ATOM     24  H8  UNK     1      48.295  13.160  -2.858  1.00  0.00     0.210 HD
ENDBRANCH  16  23
BRANCH  17  25
ATOM     25  O3  UNK     1      50.057  10.064  -3.492  1.00  0.00    -0.390 OA
ATOM     26  H6  UNK     1      50.257  10.576  -2.691  1.00  0.00     0.210 HD
ENDBRANCH  17  25
BRANCH  18  27
ATOM     27  O4  UNK     1      48.391   8.937  -5.643  1.00  0.00    -0.388 OA
ATOM     28  H7  UNK     1      47.763   8.904  -4.903  1.00  0.00     0.210 HD
ENDBRANCH  18  27
ENDBRANCH  12  13
ENDBRANCH   3  12
BRANCH   5  29
ATOM     29  O9  UNK     1      46.704   8.350  -7.919  1.00  0.00    -0.356 OA
ATOM     30  H12 UNK     1      46.682   8.563  -6.969  1.00  0.00     0.218 HD
ENDBRANCH   5  29
BRANCH   8  31
ATOM     31  O10 UNK     1      44.381   8.259  -9.347  1.00  0.00    -0.357 OA
ATOM     32  H13 UNK     1      44.372   7.860  -8.464  1.00  0.00     0.217 HD
ENDBRANCH   8  31
BRANCH  10  33
ATOM     33  C16 UNK     1      43.669  14.112 -12.148  1.00  0.00    -0.002 A 
ATOM     34  C17 UNK     1      44.165  15.311 -11.630  1.00  0.00     0.014 A 
ATOM     35  C19 UNK     1      43.897  16.517 -12.278  1.00  0.00     0.001 A 
ATOM     36  C21 UNK     1      43.134  16.528 -13.445  1.00  0.00     0.000 A 
ATOM     37  C20 UNK     1      42.638  15.333 -13.965  1.00  0.00     0.001 A 
ATOM     38  C18 UNK     1      42.906  14.127 -13.317  1.00  0.00     0.014 A 
ENDBRANCH  10  33
TORSDOF 10
ENDMDL
MODEL 5
REMARK VINA RESULT:      -6.9     15.929     19.000
REMARK  10 active torsions:
REMARK  status: ('A' for Active; 'I' for Inactive)
REMARK    1  A    between atoms: O2_2  and  C4_15 
REMARK    2  A    between atoms: O2_2  and  C7_18 
REMARK    3  A    between atoms: O3_3  and  C1_12 
REMARK    4  A    between atoms: O4_4  and  C2_13 
REMARK    5  A    between atoms: O5_5  and  C3_14 
REMARK    6  A    between atoms: O6_6  and  C6_17 
REMARK    7  A    between atoms: O9_9  and  C9_20 
REMARK    8  A    between atoms: O10_10  and  C12_23 
REMARK    9  A    between atoms: C5_16  and  C6_17 
REMARK   10  A    between atoms: C14_25  and  C16_27 
ROOT
ATOM      1  O8  UNK     1      43.989   1.729   8.557  1.00  0.00    -0.309 OA
ATOM      2  O11 UNK     1      42.058   5.080   9.838  1.00  0.00    -0.287 OA
ATOM      3  C7  UNK     1      40.742   0.255   9.306  1.00  0.00     0.110 A 
ATOM      4  C8  UNK     1      42.072   0.397   8.908  1.00  0.00     0.078 A 
ATOM      5  C9  UNK     1      40.023   1.364   9.755  1.00  0.00     0.134 A 
ATOM      6  C10 UNK     1      42.681   1.652   8.960  1.00  0.00     0.096 A 
ATOM      7  C11 UNK     1      41.961   2.758   9.408  1.00  0.00     0.084 A 
ATOM      8  C12 UNK     1      40.629   2.620   9.807  1.00  0.00     0.118 A 
ATOM      9  C13 UNK     1      42.628   4.068   9.454  1.00  0.00     0.190 A 
ATOM     10  C14 UNK     1      44.619   2.965   8.590  1.00  0.00     0.090 A 
ATOM     11  C15 UNK     1      44.035   4.099   9.006  1.00  0.00     0.094 A 
ENDROOT
BRANCH   3  12
ATOM     12  O2  UNK     1      40.156  -0.975   9.252  1.00  0.00    -0.315 OA
BRANCH  12  13
ATOM     13  C4  UNK     1      39.171  -1.169   8.236  1.00  0.00     0.299 C 
ATOM     14  O1  UNK     1      37.868  -1.105   8.811  1.00  0.00    -0.340 OA
ATOM     15  C5  UNK     1      36.840  -1.270   7.841  1.00  0.00     0.253 C 
ATOM     16  C3  UNK     1      36.919  -2.645   7.188  1.00  0.00     0.189 C 
ATOM     17  C1  UNK     1      38.309  -2.886   6.600  1.00  0.00     0.183 C 
ATOM     18  C2  UNK     1      39.408  -2.542   7.606  1.00  0.00     0.205 C 
BRANCH  15  19
ATOM     19  C6  UNK     1      35.586  -1.130   8.642  1.00  0.00     0.172 C 
ATOM     20  O7  UNK     1      34.555  -1.757   8.448  1.00  0.00    -0.648 OA
BRANCH  19  21
ATOM     21  O6  UNK     1      35.744  -0.204   9.620  1.00  0.00    -0.774 OA
ATOM     22  H10 UNK     1      35.388   0.671   9.357  1.00  0.00     0.167 HD
ENDBRANCH  19  21
ENDBRANCH  15  19
BRANCH  16  23
ATOM     23  O5  UNK     1      35.952  -2.709   6.140  1.00  0.00    -0.390 OA
ATOM     24  H8  UNK     1      36.260  -2.145   5.410  1.00  0.00     0.210 HD
ENDBRANCH  16  23
BRANCH  17  25
ATOM     25  O3  UNK     1      38.405  -4.266   6.243  1.00  0.00    -0.390 OA
ATOM     26  H6  UNK     1      37.641  -4.725   6.630  1.00  0.00     0.210 HD
ENDBRANCH  17  25
BRANCH  18  27
ATOM     27  O4  UNK     1      40.670  -2.517   6.940  1.00  0.00    -0.388 OA
ATOM     28  H7  UNK     1      40.646  -1.795   6.291  1.00  0.00     0.210 HD
ENDBRANCH  18  27
ENDBRANCH  12  13
ENDBRANCH   3  12
BRANCH   5  29
ATOM     29  O9  UNK     1      38.722   1.217  10.142  1.00  0.00    -0.356 OA
ATOM     30  H12 UNK     1      38.709   0.796  11.020  1.00  0.00     0.218 HD
ENDBRANCH   5  29
BRANCH   8  31
ATOM     31  O10 UNK     1      39.894   3.678  10.251  1.00  0.00    -0.357 OA
ATOM     32  H13 UNK     1      39.464   4.132   9.510  1.00  0.00     0.217 HD
ENDBRANCH   8  31
BRANCH  10  33
ATOM     33  C16 UNK     1      46.025   2.934   8.140  1.00  0.00    -0.002 A 
ATOM     34  C17 UNK     1      46.446   1.971   7.218  1.00  0.00     0.014 A 
ATOM     35  C19 UNK     1      47.774   1.943   6.792  1.00  0.00     0.001 A 
ATOM     36  C21 UNK     1      48.685   2.877   7.285  1.00  0.00     0.000 A 
ATOM     37  C20 UNK     1      48.269   3.839   8.206  1.00  0.00     0.001 A 
ATOM     38  C18 UNK     1      46.941   3.867   8.631  1.00  0.00     0.014 A 
ENDBRANCH  10  33
TORSDOF 10
ENDMDL
MODEL 6
REMARK VINA RESULT:      -6.8     16.750     20.104
REMARK  10 active torsions:
REMARK  status: ('A' for Active; 'I' for Inactive)
REMARK    1  A    between atoms: O2_2  and  C4_15 
REMARK    2  A    between atoms: O2_2  and  C7_18 
REMARK    3  A    between atoms: O3_3  and  C1_12 
REMARK    4  A    between atoms: O4_4  and  C2_13 
REMARK    5  A    between atoms: O5_5  and  C3_14 
REMARK    6  A    between atoms: O6_6  and  C6_17 
REMARK    7  A    between atoms: O9_9  and  C9_20 
REMARK    8  A    between atoms: O10_10  and  C12_23 
REMARK    9  A    between atoms: C5_16  and  C6_17 
REMARK   10  A    between atoms: C14_25  and  C16_27 
ROOT
ATOM      1  O8  UNK     1      44.330   2.559   7.964  1.00  0.00    -0.309 OA
ATOM      2  O11 UNK     1      42.897   5.518  10.371  1.00  0.00    -0.287 OA
ATOM      3  C7  UNK     1      40.823   1.572   8.043  1.00  0.00     0.110 A 
ATOM      4  C8  UNK     1      42.187   1.589   7.753  1.00  0.00     0.078 A 
ATOM      5  C9  UNK     1      40.268   2.558   8.861  1.00  0.00     0.134 A 
ATOM      6  C10 UNK     1      42.997   2.595   8.283  1.00  0.00     0.096 A 
ATOM      7  C11 UNK     1      42.440   3.578   9.099  1.00  0.00     0.084 A 
ATOM      8  C12 UNK     1      41.075   3.565   9.392  1.00  0.00     0.118 A 
ATOM      9  C13 UNK     1      43.317   4.626   9.646  1.00  0.00     0.190 A 
ATOM     10  C14 UNK     1      45.157   3.550   8.470  1.00  0.00     0.090 A 
ATOM     11  C15 UNK     1      44.743   4.545   9.269  1.00  0.00     0.094 A 
ENDROOT
BRANCH   3  12
ATOM     12  O2  UNK     1      40.041   0.585   7.521  1.00  0.00    -0.315 OA
BRANCH  12  13
ATOM     13  C4  UNK     1      39.558  -0.401   8.435  1.00  0.00     0.299 C 
ATOM     14  O1  UNK     1      40.609  -0.799   9.312  1.00  0.00    -0.340 OA
ATOM     15  C5  UNK     1      40.181  -1.766  10.264  1.00  0.00     0.253 C 
ATOM     16  C3  UNK     1      39.729  -3.049   9.576  1.00  0.00     0.189 C 
ATOM     17  C1  UNK     1      38.652  -2.754   8.533  1.00  0.00     0.183 C 
ATOM     18  C2  UNK     1      39.061  -1.596   7.621  1.00  0.00     0.205 C 
BRANCH  15  19
ATOM     19  C6  UNK     1      41.406  -2.003  11.086  1.00  0.00     0.172 C 
ATOM     20  O7  UNK     1      41.887  -1.204  11.876  1.00  0.00    -0.648 OA
BRANCH  19  21
ATOM     21  O6  UNK     1      41.920  -3.232  10.836  1.00  0.00    -0.774 OA
ATOM     22  H10 UNK     1      42.687  -3.192  10.225  1.00  0.00     0.167 HD
ENDBRANCH  19  21
ENDBRANCH  15  19
BRANCH  16  23
ATOM     23  O5  UNK     1      39.194  -3.932  10.561  1.00  0.00    -0.390 OA
ATOM     24  H8  UNK     1      38.224  -3.862  10.534  1.00  0.00     0.210 HD
ENDBRANCH  16  23
BRANCH  17  25
ATOM     25  O3  UNK     1      38.461  -3.932   7.749  1.00  0.00    -0.390 OA
ATOM     26  H6  UNK     1      38.995  -4.641   8.145  1.00  0.00     0.210 HD
ENDBRANCH  17  25
BRANCH  18  27
ATOM     27  O4  UNK     1      37.934  -1.177   6.853  1.00  0.00    -0.388 OA
ATOM     28  H7  UNK     1      37.292  -1.906   6.850  1.00  0.00     0.210 HD
ENDBRANCH  18  27
ENDBRANCH  12  13
ENDBRANCH   3  12
BRANCH   5  29
ATOM     29  O9  UNK     1      38.932   2.534   9.140  1.00  0.00    -0.356 OA
ATOM     30  H12 UNK     1      38.816   2.264  10.068  1.00  0.00     0.218 HD
ENDBRANCH   5  29
BRANCH   8  31
ATOM     31  O10 UNK     1      40.496   4.510  10.186  1.00  0.00    -0.357 OA
ATOM     32  H13 UNK     1      41.047   5.306  10.229  1.00  0.00     0.217 HD
ENDBRANCH   8  31
BRANCH  10  33
ATOM     33  C16 UNK     1      46.572   3.414   8.068  1.00  0.00    -0.002 A 
ATOM     34  C17 UNK     1      47.573   4.065   8.793  1.00  0.00     0.014 A 
ATOM     35  C19 UNK     1      48.910   3.936   8.414  1.00  0.00     0.001 A 
ATOM     36  C21 UNK     1      49.249   3.154   7.310  1.00  0.00     0.000 A 
ATOM     37  C20 UNK     1      48.253   2.502   6.584  1.00  0.00     0.001 A 
ATOM     38  C18 UNK     1      46.916   2.632   6.963  1.00  0.00     0.014 A 
ENDBRANCH  10  33
TORSDOF 10
ENDMDL
MODEL 7
REMARK VINA RESULT:      -6.8     15.399     18.534
REMARK  10 active torsions:
REMARK  status: ('A' for Active; 'I' for Inactive)
REMARK    1  A    between atoms: O2_2  and  C4_15 
REMARK    2  A    between atoms: O2_2  and  C7_18 
REMARK    3  A    between atoms: O3_3  and  C1_12 
REMARK    4  A    between atoms: O4_4  and  C2_13 
REMARK    5  A    between atoms: O5_5  and  C3_14 
REMARK    6  A    between atoms: O6_6  and  C6_17 
REMARK    7  A    between atoms: O9_9  and  C9_20 
REMARK    8  A    between atoms: O10_10  and  C12_23 
REMARK    9  A    between atoms: C5_16  and  C6_17 
REMARK   10  A    between atoms: C14_25  and  C16_27 
ROOT
ATOM      1  O8  UNK     1      43.650   0.889   8.517  1.00  0.00    -0.309 OA
ATOM      2  O11 UNK     1      41.863   4.340   9.741  1.00  0.00    -0.287 OA
ATOM      3  C7  UNK     1      40.316  -0.414   9.197  1.00  0.00     0.110 A 
ATOM      4  C8  UNK     1      41.659  -0.342   8.830  1.00  0.00     0.078 A 
ATOM      5  C9  UNK     1      39.644   0.732   9.625  1.00  0.00     0.134 A 
ATOM      6  C10 UNK     1      42.331   0.880   8.890  1.00  0.00     0.096 A 
ATOM      7  C11 UNK     1      41.658   2.023   9.317  1.00  0.00     0.084 A 
ATOM      8  C12 UNK     1      40.312   1.955   9.686  1.00  0.00     0.118 A 
ATOM      9  C13 UNK     1      42.390   3.298   9.373  1.00  0.00     0.190 A 
ATOM     10  C14 UNK     1      44.341   2.090   8.560  1.00  0.00     0.090 A 
ATOM     11  C15 UNK     1      43.806   3.255   8.958  1.00  0.00     0.094 A 
ENDROOT
BRANCH   3  12
ATOM     12  O2  UNK     1      39.669  -1.613   9.134  1.00  0.00    -0.315 OA
BRANCH  12  13
ATOM     13  C4  UNK     1      38.705  -1.766   8.092  1.00  0.00     0.299 C 
ATOM     14  O1  UNK     1      37.410  -1.952   8.657  1.00  0.00    -0.340 OA
ATOM     15  C5  UNK     1      36.400  -2.088   7.663  1.00  0.00     0.253 C 
ATOM     16  C3  UNK     1      36.640  -3.323   6.804  1.00  0.00     0.189 C 
ATOM     17  C1  UNK     1      38.044  -3.298   6.199  1.00  0.00     0.183 C 
ATOM     18  C2  UNK     1      39.102  -2.984   7.257  1.00  0.00     0.205 C 
BRANCH  15  19
ATOM     19  C6  UNK     1      35.147  -2.229   8.464  1.00  0.00     0.172 C 
ATOM     20  O7  UNK     1      34.514  -1.301   8.948  1.00  0.00    -0.648 OA
BRANCH  19  21
ATOM     21  O6  UNK     1      34.802  -3.534   8.588  1.00  0.00    -0.774 OA
ATOM     22  H10 UNK     1      33.830  -3.660   8.563  1.00  0.00     0.167 HD
ENDBRANCH  19  21
ENDBRANCH  15  19
BRANCH  16  23
ATOM     23  O5  UNK     1      35.679  -3.341   5.750  1.00  0.00    -0.390 OA
ATOM     24  H8  UNK     1      35.125  -2.546   5.833  1.00  0.00     0.210 HD
ENDBRANCH  16  23
BRANCH  17  25
ATOM     25  O3  UNK     1      38.304  -4.583   5.631  1.00  0.00    -0.390 OA
ATOM     26  H6  UNK     1      39.103  -4.508   5.084  1.00  0.00     0.210 HD
ENDBRANCH  17  25
BRANCH  18  27
ATOM     27  O4  UNK     1      40.345  -2.701   6.615  1.00  0.00    -0.388 OA
ATOM     28  H7  UNK     1      40.940  -3.451   6.780  1.00  0.00     0.210 HD
ENDBRANCH  18  27
ENDBRANCH  12  13
ENDBRANCH   3  12
BRANCH   5  29
ATOM     29  O9  UNK     1      38.329   0.653   9.983  1.00  0.00    -0.356 OA
ATOM     30  H12 UNK     1      37.871   0.075   9.347  1.00  0.00     0.218 HD
ENDBRANCH   5  29
BRANCH   8  31
ATOM     31  O10 UNK     1      39.622   3.052  10.109  1.00  0.00    -0.357 OA
ATOM     32  H13 UNK     1      39.756   3.198  11.058  1.00  0.00     0.217 HD
ENDBRANCH   8  31
BRANCH  10  33
ATOM     33  C16 UNK     1      45.754   1.986   8.142  1.00  0.00    -0.002 A 
ATOM     34  C17 UNK     1      46.645   1.196   8.874  1.00  0.00     0.014 A 
ATOM     35  C19 UNK     1      47.979   1.097   8.478  1.00  0.00     0.001 A 
ATOM     36  C21 UNK     1      48.427   1.785   7.351  1.00  0.00     0.000 A 
ATOM     37  C20 UNK     1      47.540   2.574   6.618  1.00  0.00     0.001 A 
ATOM     38  C18 UNK     1      46.205   2.674   7.014  1.00  0.00     0.014 A 
ENDBRANCH  10  33
TORSDOF 10
ENDMDL
MODEL 8
REMARK VINA RESULT:      -6.8     16.843     20.016
REMARK  10 active torsions:
REMARK  status: ('A' for Active; 'I' for Inactive)
REMARK    1  A    between atoms: O2_2  and  C4_15 
REMARK    2  A    between atoms: O2_2  and  C7_18 
REMARK    3  A    between atoms: O3_3  and  C1_12 
REMARK    4  A    between atoms: O4_4  and  C2_13 
REMARK    5  A    between atoms: O5_5  and  C3_14 
REMARK    6  A    between atoms: O6_6  and  C6_17 
REMARK    7  A    between atoms: O9_9  and  C9_20 
REMARK    8  A    between atoms: O10_10  and  C12_23 
REMARK    9  A    between atoms: C5_16  and  C6_17 
REMARK   10  A    between atoms: C14_25  and  C16_27 
ROOT
ATOM      1  O8  UNK     1      45.432   2.724   8.929  1.00  0.00    -0.309 OA
ATOM      2  O11 UNK     1      43.420   6.150   9.832  1.00  0.00    -0.287 OA
ATOM      3  C7  UNK     1      42.198   1.273   9.774  1.00  0.00     0.110 A 
ATOM      4  C8  UNK     1      43.531   1.399   9.385  1.00  0.00     0.078 A 
ATOM      5  C9  UNK     1      41.452   2.408  10.096  1.00  0.00     0.134 A 
ATOM      6  C10 UNK     1      44.118   2.663   9.317  1.00  0.00     0.096 A 
ATOM      7  C11 UNK     1      43.371   3.795   9.639  1.00  0.00     0.084 A 
ATOM      8  C12 UNK     1      42.035   3.673  10.029  1.00  0.00     0.118 A 
ATOM      9  C13 UNK     1      44.015   5.115   9.561  1.00  0.00     0.190 A 
ATOM     10  C14 UNK     1      46.039   3.968   8.846  1.00  0.00     0.090 A 
ATOM     11  C15 UNK     1      45.428   5.128   9.135  1.00  0.00     0.094 A 
ENDROOT
BRANCH   3  12
ATOM     12  O2  UNK     1      41.634   0.032   9.837  1.00  0.00    -0.315 OA
BRANCH  12  13
ATOM     13  C4  UNK     1      41.041  -0.462   8.635  1.00  0.00     0.299 C 
ATOM     14  O1  UNK     1      39.851   0.270   8.350  1.00  0.00    -0.340 OA
ATOM     15  C5  UNK     1      39.224  -0.163   7.148  1.00  0.00     0.253 C 
ATOM     16  C3  UNK     1      38.782  -1.618   7.254  1.00  0.00     0.189 C 
ATOM     17  C1  UNK     1      39.956  -2.514   7.647  1.00  0.00     0.183 C 
ATOM     18  C2  UNK     1      40.719  -1.942   8.842  1.00  0.00     0.205 C 
BRANCH  15  19
ATOM     19  C6  UNK     1      38.046   0.747   7.027  1.00  0.00     0.172 C 
ATOM     20  O7  UNK     1      36.991   0.613   7.629  1.00  0.00    -0.648 OA
BRANCH  19  21
ATOM     21  O6  UNK     1      38.303   1.749   6.152  1.00  0.00    -0.774 OA
ATOM     22  H10 UNK     1      39.061   1.540   5.566  1.00  0.00     0.167 HD
ENDBRANCH  19  21
ENDBRANCH  15  19
BRANCH  16  23
ATOM     23  O5  UNK     1      38.279  -2.037   5.986  1.00  0.00    -0.390 OA
ATOM     24  H8  UNK     1      38.663  -1.459   5.304  1.00  0.00     0.210 HD
ENDBRANCH  16  23
BRANCH  17  25
ATOM     25  O3  UNK     1      39.436  -3.801   7.986  1.00  0.00    -0.390 OA
ATOM     26  H6  UNK     1      39.818  -4.058   8.841  1.00  0.00     0.210 HD
ENDBRANCH  17  25
BRANCH  18  27
ATOM     27  O4  UNK     1      41.949  -2.649   9.001  1.00  0.00    -0.388 OA
ATOM     28  H7  UNK     1      42.670  -1.998   8.967  1.00  0.00     0.210 HD
ENDBRANCH  18  27
ENDBRANCH  12  13
ENDBRANCH   3  12
BRANCH   5  29
ATOM     29  O9  UNK     1      40.147   2.276  10.476  1.00  0.00    -0.356 OA
ATOM     30  H12 UNK     1      39.647   3.036  10.130  1.00  0.00     0.218 HD
ENDBRANCH   5  29
BRANCH   8  31
ATOM     31  O10 UNK     1      41.274   4.757  10.351  1.00  0.00    -0.357 OA
ATOM     32  H13 UNK     1      41.815   5.561  10.376  1.00  0.00     0.217 HD
ENDBRANCH   8  31
BRANCH  10  33
ATOM     33  C16 UNK     1      47.454   3.918   8.424  1.00  0.00    -0.002 A 
ATOM     34  C17 UNK     1      47.831   3.137   7.328  1.00  0.00     0.014 A 
ATOM     35  C19 UNK     1      49.167   3.091   6.929  1.00  0.00     0.001 A 
ATOM     36  C21 UNK     1      50.129   3.826   7.622  1.00  0.00     0.000 A 
ATOM     37  C20 UNK     1      49.755   4.607   8.716  1.00  0.00     0.001 A 
ATOM     38  C18 UNK     1      48.419   4.652   9.116  1.00  0.00     0.014 A 
ENDBRANCH  10  33
TORSDOF 10
ENDMDL
MODEL 9
REMARK VINA RESULT:      -6.7     17.374     20.431
REMARK  10 active torsions:
REMARK  status: ('A' for Active; 'I' for Inactive)
REMARK    1  A    between atoms: O2_2  and  C4_15 
REMARK    2  A    between atoms: O2_2  and  C7_18 
REMARK    3  A    between atoms: O3_3  and  C1_12 
REMARK    4  A    between atoms: O4_4  and  C2_13 
REMARK    5  A    between atoms: O5_5  and  C3_14 
REMARK    6  A    between atoms: O6_6  and  C6_17 
REMARK    7  A    between atoms: O9_9  and  C9_20 
REMARK    8  A    between atoms: O10_10  and  C12_23 
REMARK    9  A    between atoms: C5_16  and  C6_17 
REMARK   10  A    between atoms: C14_25  and  C16_27 
ROOT
ATOM      1  O8  UNK     1      45.239   3.291   9.275  1.00  0.00    -0.309 OA
ATOM      2  O11 UNK     1      43.663   7.042   9.492  1.00  0.00    -0.287 OA
ATOM      3  C7  UNK     1      41.773   2.406   9.969  1.00  0.00     0.110 A 
ATOM      4  C8  UNK     1      43.139   2.301   9.707  1.00  0.00     0.078 A 
ATOM      5  C9  UNK     1      41.170   3.661  10.055  1.00  0.00     0.134 A 
ATOM      6  C10 UNK     1      43.902   3.457   9.529  1.00  0.00     0.096 A 
ATOM      7  C11 UNK     1      43.298   4.709   9.616  1.00  0.00     0.084 A 
ATOM      8  C12 UNK     1      41.930   4.818   9.878  1.00  0.00     0.118 A 
ATOM      9  C13 UNK     1      44.126   5.910   9.427  1.00  0.00     0.190 A 
ATOM     10  C14 UNK     1      46.021   4.421   9.087  1.00  0.00     0.090 A 
ATOM     11  C15 UNK     1      45.558   5.679   9.152  1.00  0.00     0.094 A 
ENDROOT
BRANCH   3  12
ATOM     12  O2  UNK     1      41.037   1.270  10.140  1.00  0.00    -0.315 OA
BRANCH  12  13
ATOM     13  C4  UNK     1      40.419   0.727   8.973  1.00  0.00     0.299 C 
ATOM     14  O1  UNK     1      39.002   0.732   9.132  1.00  0.00    -0.340 OA
ATOM     15  C5  UNK     1      38.327   0.222   7.988  1.00  0.00     0.253 C 
ATOM     16  C3  UNK     1      38.695  -1.237   7.741  1.00  0.00     0.189 C 
ATOM     17  C1  UNK     1      40.211  -1.403   7.637  1.00  0.00     0.183 C 
ATOM     18  C2  UNK     1      40.929  -0.702   8.790  1.00  0.00     0.205 C 
BRANCH  15  19
ATOM     19  C6  UNK     1      36.884   0.355   8.353  1.00  0.00     0.172 C 
ATOM     20  O7  UNK     1      36.464   0.628   9.467  1.00  0.00    -0.648 OA
BRANCH  19  21
ATOM     21  O6  UNK     1      36.095   0.127   7.274  1.00  0.00    -0.774 OA
ATOM     22  H10 UNK     1      36.467  -0.564   6.687  1.00  0.00     0.167 HD
ENDBRANCH  19  21
ENDBRANCH  15  19
BRANCH  16  23
ATOM     23  O5  UNK     1      38.095  -1.658   6.517  1.00  0.00    -0.390 OA
ATOM     24  H8  UNK     1      38.134  -0.915   5.890  1.00  0.00     0.210 HD
ENDBRANCH  16  23
BRANCH  17  25
ATOM     25  O3  UNK     1      40.506  -2.800   7.670  1.00  0.00    -0.390 OA
ATOM     26  H6  UNK     1      41.301  -2.922   8.215  1.00  0.00     0.210 HD
ENDBRANCH  17  25
BRANCH  18  27
ATOM     27  O4  UNK     1      42.329  -0.646   8.512  1.00  0.00    -0.388 OA
ATOM     28  H7  UNK     1      42.564   0.287   8.372  1.00  0.00     0.210 HD
ENDBRANCH  18  27
ENDBRANCH  12  13
ENDBRANCH   3  12
BRANCH   5  29
ATOM     29  O9  UNK     1      39.833   3.755  10.312  1.00  0.00    -0.356 OA
ATOM     30  H12 UNK     1      39.406   2.929  10.023  1.00  0.00     0.218 HD
ENDBRANCH   5  29
BRANCH   8  31
ATOM     31  O10 UNK     1      41.306   6.026   9.970  1.00  0.00    -0.357 OA
ATOM     32  H13 UNK     1      40.349   5.929   9.847  1.00  0.00     0.217 HD
ENDBRANCH   8  31
BRANCH  10  33
ATOM     33  C16 UNK     1      47.445   4.129   8.825  1.00  0.00    -0.002 A 
ATOM     34  C17 UNK     1      48.427   5.064   9.163  1.00  0.00     0.014 A 
ATOM     35  C19 UNK     1      49.772   4.788   8.916  1.00  0.00     0.001 A 
ATOM     36  C21 UNK     1      50.139   3.576   8.330  1.00  0.00     0.000 A 
ATOM     37  C20 UNK     1      49.161   2.641   7.991  1.00  0.00     0.001 A 
ATOM     38  C18 UNK     1      47.817   2.917   8.238  1.00  0.00     0.014 A 
ENDBRANCH  10  33
TORSDOF 10
ENDMDL
MODEL 10
REMARK VINA RESULT:      -6.6     13.402     17.353
REMARK  10 active torsions:
REMARK  status: ('A' for Active; 'I' for Inactive)
REMARK    1  A    between atoms: O2_2  and  C4_15 
REMARK    2  A    between atoms: O2_2  and  C7_18 
REMARK    3  A    between atoms: O3_3  and  C1_12 
REMARK    4  A    between atoms: O4_4  and  C2_13 
REMARK    5  A    between atoms: O5_5  and  C3_14 
REMARK    6  A    between atoms: O6_6  and  C6_17 
REMARK    7  A    between atoms: O9_9  and  C9_20 
REMARK    8  A    between atoms: O10_10  and  C12_23 
REMARK    9  A    between atoms: C5_16  and  C6_17 
REMARK   10  A    between atoms: C14_25  and  C16_27 
ROOT
ATOM      1  O8  UNK     1      37.935  -5.375   5.247  1.00  0.00    -0.309 OA
ATOM      2  O11 UNK     1      34.058  -4.342   5.957  1.00  0.00    -0.287 OA
ATOM      3  C7  UNK     1      38.505  -2.357   7.208  1.00  0.00     0.110 A 
ATOM      4  C8  UNK     1      38.732  -3.509   6.455  1.00  0.00     0.078 A 
ATOM      5  C9  UNK     1      37.201  -1.949   7.489  1.00  0.00     0.134 A 
ATOM      6  C10 UNK     1      37.650  -4.253   5.982  1.00  0.00     0.096 A 
ATOM      7  C11 UNK     1      36.348  -3.843   6.263  1.00  0.00     0.084 A 
ATOM      8  C12 UNK     1      36.117  -2.690   7.017  1.00  0.00     0.118 A 
ATOM      9  C13 UNK     1      35.226  -4.644   5.751  1.00  0.00     0.190 A 
ATOM     10  C14 UNK     1      36.879  -6.138   4.771  1.00  0.00     0.090 A 
ATOM     11  C15 UNK     1      35.585  -5.845   4.969  1.00  0.00     0.094 A 
ENDROOT
BRANCH   3  12
ATOM     12  O2  UNK     1      39.570  -1.638   7.666  1.00  0.00    -0.315 OA
BRANCH  12  13
ATOM     13  C4  UNK     1      40.202  -2.116   8.854  1.00  0.00     0.299 C 
ATOM     14  O1  UNK     1      39.212  -2.473   9.816  1.00  0.00    -0.340 OA
ATOM     15  C5  UNK     1      39.783  -2.980  11.017  1.00  0.00     0.253 C 
ATOM     16  C3  UNK     1      40.643  -1.925  11.703  1.00  0.00     0.189 C 
ATOM     17  C1  UNK     1      41.704  -1.384  10.745  1.00  0.00     0.183 C 
ATOM     18  C2  UNK     1      41.094  -1.000   9.396  1.00  0.00     0.205 C 
BRANCH  15  19
ATOM     19  C6  UNK     1      38.588  -3.319  11.848  1.00  0.00     0.172 C 
ATOM     20  O7  UNK     1      38.570  -3.356  13.069  1.00  0.00    -0.648 OA
BRANCH  19  21
ATOM     21  O6  UNK     1      37.518  -3.586  11.061  1.00  0.00    -0.774 OA
ATOM     22  H10 UNK     1      37.365  -2.880  10.397  1.00  0.00     0.167 HD
ENDBRANCH  19  21
ENDBRANCH  15  19
BRANCH  16  23
ATOM     23  O5  UNK     1      41.289  -2.522  12.826  1.00  0.00    -0.390 OA
ATOM     24  H8  UNK     1      40.784  -3.313  13.080  1.00  0.00     0.210 HD
ENDBRANCH  16  23
BRANCH  17  25
ATOM     25  O3  UNK     1      42.297  -0.232  11.346  1.00  0.00    -0.390 OA
ATOM     26  H6  UNK     1      42.800  -0.529  12.122  1.00  0.00     0.210 HD
ENDBRANCH  17  25
BRANCH  18  27
ATOM     27  O4  UNK     1      42.140  -0.764   8.453  1.00  0.00    -0.388 OA
ATOM     28  H7  UNK     1      42.940  -0.529   8.953  1.00  0.00     0.210 HD
ENDBRANCH  18  27
ENDBRANCH  12  13
ENDBRANCH   3  12
BRANCH   5  29
ATOM     29  O9  UNK     1      36.988  -0.820   8.226  1.00  0.00    -0.356 OA
ATOM     30  H12 UNK     1      36.309  -0.284   7.780  1.00  0.00     0.218 HD
ENDBRANCH   5  29
BRANCH   8  31
ATOM     31  O10 UNK     1      34.858  -2.259   7.312  1.00  0.00    -0.357 OA
ATOM     32  H13 UNK     1      34.193  -2.848   6.923  1.00  0.00     0.217 HD
ENDBRANCH   8  31
BRANCH  10  33
ATOM     33  C16 UNK     1      37.298  -7.319   3.989  1.00  0.00    -0.002 A 
ATOM     34  C17 UNK     1      38.567  -7.872   4.179  1.00  0.00     0.014 A 
ATOM     35  C19 UNK     1      38.962  -8.989   3.441  1.00  0.00     0.001 A 
ATOM     36  C21 UNK     1      38.089  -9.556   2.513  1.00  0.00     0.000 A 
ATOM     37  C20 UNK     1      36.821  -9.007   2.321  1.00  0.00     0.001 A 
ATOM     38  C18 UNK     1      36.427  -7.890   3.058  1.00  0.00     0.014 A 
ENDBRANCH  10  33
TORSDOF 10
ENDMDL
MODEL 11
REMARK VINA RESULT:      -6.6     18.112     21.379
REMARK  10 active torsions:
REMARK  status: ('A' for Active; 'I' for Inactive)
REMARK    1  A    between atoms: O2_2  and  C4_15 
REMARK    2  A    between atoms: O2_2  and  C7_18 
REMARK    3  A    between atoms: O3_3  and  C1_12 
REMARK    4  A    between atoms: O4_4  and  C2_13 
REMARK    5  A    between atoms: O5_5  and  C3_14 
REMARK    6  A    between atoms: O6_6  and  C6_17 
REMARK    7  A    between atoms: O9_9  and  C9_20 
REMARK    8  A    between atoms: O10_10  and  C12_23 
REMARK    9  A    between atoms: C5_16  and  C6_17 
REMARK   10  A    between atoms: C14_25  and  C16_27 
ROOT
ATOM      1  O8  UNK     1      42.835   4.651  10.627  1.00  0.00    -0.309 OA
ATOM      2  O11 UNK     1      46.687   4.189   9.384  1.00  0.00    -0.287 OA
ATOM      3  C7  UNK     1      42.261   2.358   7.854  1.00  0.00     0.110 A 
ATOM      4  C8  UNK     1      42.038   3.198   8.945  1.00  0.00     0.078 A 
ATOM      5  C9  UNK     1      43.557   2.155   7.379  1.00  0.00     0.134 A 
ATOM      6  C10 UNK     1      43.116   3.837   9.561  1.00  0.00     0.096 A 
ATOM      7  C11 UNK     1      44.409   3.633   9.084  1.00  0.00     0.084 A 
ATOM      8  C12 UNK     1      44.637   2.792   7.992  1.00  0.00     0.118 A 
ATOM      9  C13 UNK     1      45.527   4.320   9.750  1.00  0.00     0.190 A 
ATOM     10  C14 UNK     1      43.887   5.293  11.263  1.00  0.00     0.090 A 
ATOM     11  C15 UNK     1      45.173   5.182  10.896  1.00  0.00     0.094 A 
ENDROOT
BRANCH   3  12
ATOM     12  O2  UNK     1      41.201   1.738   7.260  1.00  0.00    -0.315 OA
BRANCH  12  13
ATOM     13  C4  UNK     1      40.429   0.862   8.082  1.00  0.00     0.299 C 
ATOM     14  O1  UNK     1      41.243  -0.219   8.529  1.00  0.00    -0.340 OA
ATOM     15  C5  UNK     1      40.533  -1.118   9.374  1.00  0.00     0.253 C 
ATOM     16  C3  UNK     1      39.376  -1.772   8.629  1.00  0.00     0.189 C 
ATOM     17  C1  UNK     1      38.460  -0.714   8.014  1.00  0.00     0.183 C 
ATOM     18  C2  UNK     1      39.260   0.339   7.247  1.00  0.00     0.205 C 
BRANCH  15  19
ATOM     19  C6  UNK     1      41.568  -2.128   9.748  1.00  0.00     0.172 C 
ATOM     20  O7  UNK     1      41.335  -3.228  10.229  1.00  0.00    -0.648 OA
BRANCH  19  21
ATOM     21  O6  UNK     1      42.812  -1.660   9.484  1.00  0.00    -0.774 OA
ATOM     22  H10 UNK     1      43.508  -2.213   9.898  1.00  0.00     0.167 HD
ENDBRANCH  19  21
ENDBRANCH  15  19
BRANCH  16  23
ATOM     23  O5  UNK     1      38.625  -2.560   9.551  1.00  0.00    -0.390 OA
ATOM     24  H8  UNK     1      38.261  -3.323   9.070  1.00  0.00     0.210 HD
ENDBRANCH  16  23
BRANCH  17  25
ATOM     25  O3  UNK     1      37.560  -1.373   7.121  1.00  0.00    -0.390 OA
ATOM     26  H6  UNK     1      36.846  -1.760   7.653  1.00  0.00     0.210 HD
ENDBRANCH  17  25
BRANCH  18  27
ATOM     27  O4  UNK     1      38.410   1.441   6.928  1.00  0.00    -0.388 OA
ATOM     28  H7  UNK     1      38.977   2.209   6.750  1.00  0.00     0.210 HD
ENDBRANCH  18  27
ENDBRANCH  12  13
ENDBRANCH   3  12
BRANCH   5  29
ATOM     29  O9  UNK     1      43.766   1.331   6.311  1.00  0.00    -0.356 OA
ATOM     30  H12 UNK     1      44.157   1.855   5.590  1.00  0.00     0.218 HD
ENDBRANCH   5  29
BRANCH   8  31
ATOM     31  O10 UNK     1      45.888   2.569   7.499  1.00  0.00    -0.357 OA
ATOM     32  H13 UNK     1      46.386   1.975   8.081  1.00  0.00     0.217 HD
ENDBRANCH   8  31
BRANCH  10  33
ATOM     33  C16 UNK     1      43.473   6.147  12.395  1.00  0.00    -0.002 A 
ATOM     34  C17 UNK     1      43.384   5.612  13.683  1.00  0.00     0.014 A 
ATOM     35  C19 UNK     1      42.994   6.420  14.751  1.00  0.00     0.001 A 
ATOM     36  C21 UNK     1      42.692   7.764  14.536  1.00  0.00     0.000 A 
ATOM     37  C20 UNK     1      42.779   8.302  13.252  1.00  0.00     0.001 A 
ATOM     38  C18 UNK     1      43.169   7.494  12.183  1.00  0.00     0.014 A 
ENDBRANCH  10  33
TORSDOF 10
ENDMDL
MODEL 12
REMARK VINA RESULT:      -6.6     12.897     16.408
REMARK  10 active torsions:
REMARK  status: ('A' for Active; 'I' for Inactive)
REMARK    1  A    between atoms: O2_2  and  C4_15 
REMARK    2  A    between atoms: O2_2  and  C7_18 
REMARK    3  A    between atoms: O3_3  and  C1_12 
REMARK    4  A    between atoms: O4_4  and  C2_13 
REMARK    5  A    between atoms: O5_5  and  C3_14 
REMARK    6  A    between atoms: O6_6  and  C6_17 
REMARK    7  A    between atoms: O9_9  and  C9_20 
REMARK    8  A    between atoms: O10_10  and  C12_23 
REMARK    9  A    between atoms: C5_16  and  C6_17 
REMARK   10  A    between atoms: C14_25  and  C16_27 
ROOT
ATOM      1  O8  UNK     1      37.020  -5.476   5.339  1.00  0.00    -0.309 OA
ATOM      2  O11 UNK     1      33.039  -6.025   6.010  1.00  0.00    -0.287 OA
ATOM      3  C7  UNK     1      36.339  -2.425   7.211  1.00  0.00     0.110 A 
ATOM      4  C8  UNK     1      37.008  -3.416   6.493  1.00  0.00     0.078 A 
ATOM      5  C9  UNK     1      34.975  -2.552   7.476  1.00  0.00     0.134 A 
ATOM      6  C10 UNK     1      36.309  -4.536   6.040  1.00  0.00     0.096 A 
ATOM      7  C11 UNK     1      34.947  -4.661   6.306  1.00  0.00     0.084 A 
ATOM      8  C12 UNK     1      34.274  -3.670   7.025  1.00  0.00     0.118 A 
ATOM      9  C13 UNK     1      34.235  -5.851   5.816  1.00  0.00     0.190 A 
ATOM     10  C14 UNK     1      36.354  -6.603   4.883  1.00  0.00     0.090 A 
ATOM     11  C15 UNK     1      35.045  -6.835   5.070  1.00  0.00     0.094 A 
ENDROOT
BRANCH   3  12
ATOM     12  O2  UNK     1      37.031  -1.334   7.649  1.00  0.00    -0.315 OA
BRANCH  12  13
ATOM     13  C4  UNK     1      38.452  -1.460   7.710  1.00  0.00     0.299 C 
ATOM     14  O1  UNK     1      38.822  -2.174   8.887  1.00  0.00    -0.340 OA
ATOM     15  C5  UNK     1      40.230  -2.352   8.992  1.00  0.00     0.253 C 
ATOM     16  C3  UNK     1      40.945  -1.010   9.098  1.00  0.00     0.189 C 
ATOM     17  C1  UNK     1      40.566  -0.100   7.931  1.00  0.00     0.183 C 
ATOM     18  C2  UNK     1      39.051  -0.054   7.729  1.00  0.00     0.205 C 
BRANCH  15  19
ATOM     19  C6  UNK     1      40.383  -3.140  10.252  1.00  0.00     0.172 C 
ATOM     20  O7  UNK     1      39.498  -3.330  11.073  1.00  0.00    -0.648 OA
BRANCH  19  21
ATOM     21  O6  UNK     1      41.646  -3.619  10.366  1.00  0.00    -0.774 OA
ATOM     22  H10 UNK     1      42.317  -2.943  10.132  1.00  0.00     0.167 HD
ENDBRANCH  19  21
ENDBRANCH  15  19
BRANCH  16  23
ATOM     23  O5  UNK     1      42.353  -1.239   9.072  1.00  0.00    -0.390 OA
ATOM     24  H8  UNK     1      42.656  -1.360   9.988  1.00  0.00     0.210 HD
ENDBRANCH  16  23
BRANCH  17  25
ATOM     25  O3  UNK     1      41.048   1.214   8.218  1.00  0.00    -0.390 OA
ATOM     26  H6  UNK     1      41.721   1.434   7.553  1.00  0.00     0.210 HD
ENDBRANCH  17  25
BRANCH  18  27
ATOM     27  O4  UNK     1      38.758   0.575   6.481  1.00  0.00    -0.388 OA
ATOM     28  H7  UNK     1      39.021  -0.038   5.774  1.00  0.00     0.210 HD
ENDBRANCH  18  27
ENDBRANCH  12  13
ENDBRANCH   3  12
BRANCH   5  29
ATOM     29  O9  UNK     1      34.328  -1.578   8.180  1.00  0.00    -0.356 OA
ATOM     30  H12 UNK     1      34.498  -0.722   7.748  1.00  0.00     0.218 HD
ENDBRANCH   5  29
BRANCH   8  31
ATOM     31  O10 UNK     1      32.942  -3.759   7.304  1.00  0.00    -0.357 OA
ATOM     32  H13 UNK     1      32.783  -3.665   8.255  1.00  0.00     0.217 HD
ENDBRANCH   8  31
BRANCH  10  33
ATOM     33  C16 UNK     1      37.212  -7.547   4.138  1.00  0.00    -0.002 A 
ATOM     34  C17 UNK     1      38.565  -7.672   4.463  1.00  0.00     0.014 A 
ATOM     35  C19 UNK     1      39.375  -8.564   3.759  1.00  0.00     0.001 A 
ATOM     36  C21 UNK     1      38.834  -9.335   2.730  1.00  0.00     0.000 A 
ATOM     37  C20 UNK     1      37.483  -9.213   2.403  1.00  0.00     0.001 A 
ATOM     38  C18 UNK     1      36.674  -8.321   3.107  1.00  0.00     0.014 A 
ENDBRANCH  10  33
TORSDOF 10
ENDMDL
MODEL 13
REMARK VINA RESULT:      -6.6     15.835     18.997
REMARK  10 active torsions:
REMARK  status: ('A' for Active; 'I' for Inactive)
REMARK    1  A    between atoms: O2_2  and  C4_15 
REMARK    2  A    between atoms: O2_2  and  C7_18 
REMARK    3  A    between atoms: O3_3  and  C1_12 
REMARK    4  A    between atoms: O4_4  and  C2_13 
REMARK    5  A    between atoms: O5_5  and  C3_14 
REMARK    6  A    between atoms: O6_6  and  C6_17 
REMARK    7  A    between atoms: O9_9  and  C9_20 
REMARK    8  A    between atoms: O10_10  and  C12_23 
REMARK    9  A    between atoms: C5_16  and  C6_17 
REMARK   10  A    between atoms: C14_25  and  C16_27 
ROOT
ATOM      1  O8  UNK     1      43.979   0.793   8.858  1.00  0.00    -0.309 OA
ATOM      2  O11 UNK     1      42.529   3.797  11.196  1.00  0.00    -0.287 OA
ATOM      3  C7  UNK     1      40.764  -0.681   9.738  1.00  0.00     0.110 A 
ATOM      4  C8  UNK     1      42.030  -0.501   9.180  1.00  0.00     0.078 A 
ATOM      5  C9  UNK     1      40.209   0.311  10.548  1.00  0.00     0.134 A 
ATOM      6  C10 UNK     1      42.740   0.674   9.433  1.00  0.00     0.096 A 
ATOM      7  C11 UNK     1      42.183   1.662  10.242  1.00  0.00     0.084 A 
ATOM      8  C12 UNK     1      40.916   1.486  10.803  1.00  0.00     0.118 A 
ATOM      9  C13 UNK     1      42.954   2.890  10.494  1.00  0.00     0.190 A 
ATOM     10  C14 UNK     1      44.704   1.952   9.086  1.00  0.00     0.090 A 
ATOM     11  C15 UNK     1      44.280   2.971   9.849  1.00  0.00     0.094 A 
ENDROOT
BRANCH   3  12
ATOM     12  O2  UNK     1      40.079  -1.832   9.484  1.00  0.00    -0.315 OA
BRANCH  12  13
ATOM     13  C4  UNK     1      39.083  -1.771   8.463  1.00  0.00     0.299 C 
ATOM     14  O1  UNK     1      37.792  -1.957   9.038  1.00  0.00    -0.340 OA
ATOM     15  C5  UNK     1      36.752  -1.884   8.069  1.00  0.00     0.253 C 
ATOM     16  C3  UNK     1      36.890  -2.993   7.033  1.00  0.00     0.189 C 
ATOM     17  C1  UNK     1      38.277  -2.966   6.392  1.00  0.00     0.183 C 
ATOM     18  C2  UNK     1      39.378  -2.876   7.448  1.00  0.00     0.205 C 
BRANCH  15  19
ATOM     19  C6  UNK     1      35.511  -2.063   8.883  1.00  0.00     0.172 C 
ATOM     20  O7  UNK     1      34.965  -1.184   9.532  1.00  0.00    -0.648 OA
BRANCH  19  21
ATOM     21  O6  UNK     1      35.070  -3.342   8.807  1.00  0.00    -0.774 OA
ATOM     22  H10 UNK     1      35.785  -3.988   8.991  1.00  0.00     0.167 HD
ENDBRANCH  19  21
ENDBRANCH  15  19
BRANCH  16  23
ATOM     23  O5  UNK     1      35.904  -2.797   6.020  1.00  0.00    -0.390 OA
ATOM     24  H8  UNK     1      35.079  -3.218   6.317  1.00  0.00     0.210 HD
ENDBRANCH  16  23
BRANCH  17  25
ATOM     25  O3  UNK     1      38.438  -4.168   5.636  1.00  0.00    -0.390 OA
ATOM     26  H6  UNK     1      39.332  -4.160   5.256  1.00  0.00     0.210 HD
ENDBRANCH  17  25
BRANCH  18  27
ATOM     27  O4  UNK     1      40.622  -2.579   6.813  1.00  0.00    -0.388 OA
ATOM     28  H7  UNK     1      41.247  -2.304   7.503  1.00  0.00     0.210 HD
ENDBRANCH  18  27
ENDBRANCH  12  13
ENDBRANCH   3  12
BRANCH   5  29
ATOM     29  O9  UNK     1      38.970   0.128  11.090  1.00  0.00    -0.356 OA
ATOM     30  H12 UNK     1      38.744  -0.817  11.029  1.00  0.00     0.218 HD
ENDBRANCH   5  29
BRANCH   8  31
ATOM     31  O10 UNK     1      40.340   2.432  11.599  1.00  0.00    -0.357 OA
ATOM     32  H13 UNK     1      39.483   2.708  11.240  1.00  0.00     0.217 HD
ENDBRANCH   8  31
BRANCH  10  33
ATOM     33  C16 UNK     1      46.025   1.974   8.424  1.00  0.00    -0.002 A 
ATOM     34  C17 UNK     1      46.183   2.624   7.197  1.00  0.00     0.014 A 
ATOM     35  C19 UNK     1      47.431   2.646   6.572  1.00  0.00     0.001 A 
ATOM     36  C21 UNK     1      48.523   2.019   7.172  1.00  0.00     0.000 A 
ATOM     37  C20 UNK     1      48.368   1.370   8.397  1.00  0.00     0.001 A 
ATOM     38  C18 UNK     1      47.121   1.348   9.022  1.00  0.00     0.014 A 
ENDBRANCH  10  33
TORSDOF 10
ENDMDL
MODEL 14
REMARK VINA RESULT:      -6.5     16.007     19.119
REMARK  10 active torsions:
REMARK  status: ('A' for Active; 'I' for Inactive)
REMARK    1  A    between atoms: O2_2  and  C4_15 
REMARK    2  A    between atoms: O2_2  and  C7_18 
REMARK    3  A    between atoms: O3_3  and  C1_12 
REMARK    4  A    between atoms: O4_4  and  C2_13 
REMARK    5  A    between atoms: O5_5  and  C3_14 
REMARK    6  A    between atoms: O6_6  and  C6_17 
REMARK    7  A    between atoms: O9_9  and  C9_20 
REMARK    8  A    between atoms: O10_10  and  C12_23 
REMARK    9  A    between atoms: C5_16  and  C6_17 
REMARK   10  A    between atoms: C14_25  and  C16_27 
ROOT
ATOM      1  O8  UNK     1      43.192   1.672   8.578  1.00  0.00    -0.309 OA
ATOM      2  O11 UNK     1      42.651   3.444  12.207  1.00  0.00    -0.287 OA
ATOM      3  C7  UNK     1      39.557   1.488   8.757  1.00  0.00     0.110 A 
ATOM      4  C8  UNK     1      40.869   1.358   8.299  1.00  0.00     0.078 A 
ATOM      5  C9  UNK     1      39.303   2.087   9.992  1.00  0.00     0.134 A 
ATOM      6  C10 UNK     1      41.926   1.829   9.080  1.00  0.00     0.096 A 
ATOM      7  C11 UNK     1      41.669   2.426  10.312  1.00  0.00     0.084 A 
ATOM      8  C12 UNK     1      40.357   2.558  10.774  1.00  0.00     0.118 A 
ATOM      9  C13 UNK     1      42.802   2.912  11.115  1.00  0.00     0.190 A 
ATOM     10  C14 UNK     1      44.262   2.137   9.328  1.00  0.00     0.090 A 
ATOM     11  C15 UNK     1      44.145   2.724  10.529  1.00  0.00     0.094 A 
ENDROOT
BRANCH   3  12
ATOM     12  O2  UNK     1      38.531   1.025   7.987  1.00  0.00    -0.315 OA
BRANCH  12  13
ATOM     13  C4  UNK     1      38.070  -0.298   8.264  1.00  0.00     0.299 C 
ATOM     14  O1  UNK     1      38.623  -1.209   7.317  1.00  0.00    -0.340 OA
ATOM     15  C5  UNK     1      38.217  -2.552   7.556  1.00  0.00     0.253 C 
ATOM     16  C3  UNK     1      36.706  -2.699   7.416  1.00  0.00     0.189 C 
ATOM     17  C1  UNK     1      35.978  -1.707   8.322  1.00  0.00     0.183 C 
ATOM     18  C2  UNK     1      36.544  -0.295   8.172  1.00  0.00     0.205 C 
BRANCH  15  19
ATOM     19  C6  UNK     1      38.931  -3.321   6.493  1.00  0.00     0.172 C 
ATOM     20  O7  UNK     1      38.435  -4.210   5.816  1.00  0.00    -0.648 OA
BRANCH  19  21
ATOM     21  O6  UNK     1      40.214  -2.901   6.378  1.00  0.00    -0.774 OA
ATOM     22  H10 UNK     1      40.310  -2.192   5.706  1.00  0.00     0.167 HD
ENDBRANCH  19  21
ENDBRANCH  15  19
BRANCH  16  23
ATOM     23  O5  UNK     1      36.340  -4.027   7.789  1.00  0.00    -0.390 OA
ATOM     24  H8  UNK     1      36.216  -4.545   6.975  1.00  0.00     0.210 HD
ENDBRANCH  16  23
BRANCH  17  25
ATOM     25  O3  UNK     1      34.596  -1.708   7.959  1.00  0.00    -0.390 OA
ATOM     26  H6  UNK     1      34.211  -2.547   8.262  1.00  0.00     0.210 HD
ENDBRANCH  17  25
BRANCH  18  27
ATOM     27  O4  UNK     1      36.034   0.534   9.217  1.00  0.00    -0.388 OA
ATOM     28  H7  UNK     1      35.231   0.967   8.883  1.00  0.00     0.210 HD
ENDBRANCH  18  27
ENDBRANCH  12  13
ENDBRANCH   3  12
BRANCH   5  29
ATOM     29  O9  UNK     1      38.017   2.210  10.433  1.00  0.00    -0.356 OA
ATOM     30  H12 UNK     1      37.719   3.120  10.261  1.00  0.00     0.218 HD
ENDBRANCH   5  29
BRANCH   8  31
ATOM     31  O10 UNK     1      40.069   3.137  11.974  1.00  0.00    -0.357 OA
ATOM     32  H13 UNK     1      39.753   2.475  12.608  1.00  0.00     0.217 HD
ENDBRANCH   8  31
BRANCH  10  33
ATOM     33  C16 UNK     1      45.579   1.914   8.697  1.00  0.00    -0.002 A 
ATOM     34  C17 UNK     1      46.540   1.128   9.338  1.00  0.00     0.014 A 
ATOM     35  C19 UNK     1      47.783   0.916   8.742  1.00  0.00     0.001 A 
ATOM     36  C21 UNK     1      48.070   1.490   7.503  1.00  0.00     0.000 A 
ATOM     37  C20 UNK     1      47.113   2.275   6.860  1.00  0.00     0.001 A 
ATOM     38  C18 UNK     1      45.870   2.487   7.457  1.00  0.00     0.014 A 
ENDBRANCH  10  33
TORSDOF 10
ENDMDL
MODEL 15
REMARK VINA RESULT:      -6.5     16.882     20.054
REMARK  10 active torsions:
REMARK  status: ('A' for Active; 'I' for Inactive)
REMARK    1  A    between atoms: O2_2  and  C4_15 
REMARK    2  A    between atoms: O2_2  and  C7_18 
REMARK    3  A    between atoms: O3_3  and  C1_12 
REMARK    4  A    between atoms: O4_4  and  C2_13 
REMARK    5  A    between atoms: O5_5  and  C3_14 
REMARK    6  A    between atoms: O6_6  and  C6_17 
REMARK    7  A    between atoms: O9_9  and  C9_20 
REMARK    8  A    between atoms: O10_10  and  C12_23 
REMARK    9  A    between atoms: C5_16  and  C6_17 
REMARK   10  A    between atoms: C14_25  and  C16_27 
ROOT
ATOM      1  O8  UNK     1      45.457   1.284   8.855  1.00  0.00    -0.309 OA
ATOM      2  O11 UNK     1      45.344   2.371  12.781  1.00  0.00    -0.287 OA
ATOM      3  C7  UNK     1      42.475  -0.552   9.863  1.00  0.00     0.110 A 
ATOM      4  C8  UNK     1      43.514  -0.038   9.087  1.00  0.00     0.078 A 
ATOM      5  C9  UNK     1      42.378  -0.218  11.214  1.00  0.00     0.134 A 
ATOM      6  C10 UNK     1      44.458   0.812   9.667  1.00  0.00     0.096 A 
ATOM      7  C11 UNK     1      44.359   1.143  11.017  1.00  0.00     0.084 A 
ATOM      8  C12 UNK     1      43.319   0.631  11.797  1.00  0.00     0.118 A 
ATOM      9  C13 UNK     1      45.368   2.039  11.603  1.00  0.00     0.190 A 
ATOM     10  C14 UNK     1      46.404   2.136   9.402  1.00  0.00     0.090 A 
ATOM     11  C15 UNK     1      46.420   2.524  10.687  1.00  0.00     0.094 A 
ENDROOT
BRANCH   3  12
ATOM     12  O2  UNK     1      41.558  -1.381   9.287  1.00  0.00    -0.315 OA
BRANCH  12  13
ATOM     13  C4  UNK     1      40.519  -0.759   8.531  1.00  0.00     0.299 C 
ATOM     14  O1  UNK     1      39.676  -0.007   9.401  1.00  0.00    -0.340 OA
ATOM     15  C5  UNK     1      38.630   0.658   8.700  1.00  0.00     0.253 C 
ATOM     16  C3  UNK     1      37.706  -0.343   8.018  1.00  0.00     0.189 C 
ATOM     17  C1  UNK     1      38.500  -1.283   7.111  1.00  0.00     0.183 C 
ATOM     18  C2  UNK     1      39.718  -1.859   7.834  1.00  0.00     0.205 C 
BRANCH  15  19
ATOM     19  C6  UNK     1      37.911   1.400   9.779  1.00  0.00     0.172 C 
ATOM     20  O7  UNK     1      36.790   1.135  10.187  1.00  0.00    -0.648 OA
BRANCH  19  21
ATOM     21  O6  UNK     1      38.673   2.419  10.248  1.00  0.00    -0.774 OA
ATOM     22  H10 UNK     1      39.413   2.097  10.806  1.00  0.00     0.167 HD
ENDBRANCH  19  21
ENDBRANCH  15  19
BRANCH  16  23
ATOM     23  O5  UNK     1      36.758   0.374   7.229  1.00  0.00    -0.390 OA
ATOM     24  H8  UNK     1      36.970   0.225   6.292  1.00  0.00     0.210 HD
ENDBRANCH  16  23
BRANCH  17  25
ATOM     25  O3  UNK     1      37.636  -2.348   6.712  1.00  0.00    -0.390 OA
ATOM     26  H6  UNK     1      37.502  -2.925   7.482  1.00  0.00     0.210 HD
ENDBRANCH  17  25
BRANCH  18  27
ATOM     27  O4  UNK     1      40.572  -2.502   6.887  1.00  0.00    -0.388 OA
ATOM     28  H7  UNK     1      41.398  -1.993   6.842  1.00  0.00     0.210 HD
ENDBRANCH  18  27
ENDBRANCH  12  13
ENDBRANCH   3  12
BRANCH   5  29
ATOM     29  O9  UNK     1      41.358  -0.725  11.966  1.00  0.00    -0.356 OA
ATOM     30  H12 UNK     1      40.756   0.003  12.199  1.00  0.00     0.218 HD
ENDBRANCH   5  29
BRANCH   8  31
ATOM     31  O10 UNK     1      43.191   0.934  13.120  1.00  0.00    -0.357 OA
ATOM     32  H13 UNK     1      42.574   1.671  13.245  1.00  0.00     0.217 HD
ENDBRANCH   8  31
BRANCH  10  33
ATOM     33  C16 UNK     1      47.436   2.582   8.443  1.00  0.00    -0.002 A 
ATOM     34  C17 UNK     1      47.156   2.608   7.074  1.00  0.00     0.014 A 
ATOM     35  C19 UNK     1      48.130   3.030   6.169  1.00  0.00     0.001 A 
ATOM     36  C21 UNK     1      49.385   3.427   6.628  1.00  0.00     0.000 A 
ATOM     37  C20 UNK     1      49.668   3.402   7.994  1.00  0.00     0.001 A 
ATOM     38  C18 UNK     1      48.694   2.980   8.900  1.00  0.00     0.014 A 
ENDBRANCH  10  33
TORSDOF 10
ENDMDL
MODEL 16
REMARK VINA RESULT:      -6.5     13.095     16.179
REMARK  10 active torsions:
REMARK  status: ('A' for Active; 'I' for Inactive)
REMARK    1  A    between atoms: O2_2  and  C4_15 
REMARK    2  A    between atoms: O2_2  and  C7_18 
REMARK    3  A    between atoms: O3_3  and  C1_12 
REMARK    4  A    between atoms: O4_4  and  C2_13 
REMARK    5  A    between atoms: O5_5  and  C3_14 
REMARK    6  A    between atoms: O6_6  and  C6_17 
REMARK    7  A    between atoms: O9_9  and  C9_20 
REMARK    8  A    between atoms: O10_10  and  C12_23 
REMARK    9  A    between atoms: C5_16  and  C6_17 
REMARK   10  A    between atoms: C14_25  and  C16_27 
ROOT
ATOM      1  O8  UNK     1      38.569 -10.842   7.087  1.00  0.00    -0.309 OA
ATOM      2  O11 UNK     1      38.810 -11.843   3.145  1.00  0.00    -0.287 OA
ATOM      3  C7  UNK     1      37.136  -7.815   5.649  1.00  0.00     0.110 A 
ATOM      4  C8  UNK     1      37.604  -8.748   6.574  1.00  0.00     0.078 A 
ATOM      5  C9  UNK     1      37.188  -8.097   4.283  1.00  0.00     0.134 A 
ATOM      6  C10 UNK     1      38.124  -9.965   6.131  1.00  0.00     0.096 A 
ATOM      7  C11 UNK     1      38.176 -10.243   4.766  1.00  0.00     0.084 A 
ATOM      8  C12 UNK     1      37.708  -9.312   3.836  1.00  0.00     0.118 A 
ATOM      9  C13 UNK     1      38.731 -11.533   4.326  1.00  0.00     0.190 A 
ATOM     10  C14 UNK     1      39.085 -12.061   6.676  1.00  0.00     0.090 A 
ATOM     11  C15 UNK     1      39.193 -12.443   5.394  1.00  0.00     0.094 A 
ENDROOT
BRANCH   3  12
ATOM     12  O2  UNK     1      36.629  -6.630   6.093  1.00  0.00    -0.315 OA
BRANCH  12  13
ATOM     13  C4  UNK     1      37.539  -5.754   6.759  1.00  0.00     0.299 C 
ATOM     14  O1  UNK     1      36.984  -5.341   8.006  1.00  0.00    -0.340 OA
ATOM     15  C5  UNK     1      37.858  -4.482   8.729  1.00  0.00     0.253 C 
ATOM     16  C3  UNK     1      38.116  -3.191   7.960  1.00  0.00     0.189 C 
ATOM     17  C1  UNK     1      38.638  -3.492   6.555  1.00  0.00     0.183 C 
ATOM     18  C2  UNK     1      37.778  -4.545   5.855  1.00  0.00     0.205 C 
BRANCH  15  19
ATOM     19  C6  UNK     1      37.106  -4.211   9.991  1.00  0.00     0.172 C 
ATOM     20  O7  UNK     1      35.904  -4.373  10.141  1.00  0.00    -0.648 OA
BRANCH  19  21
ATOM     21  O6  UNK     1      37.941  -3.755  10.957  1.00  0.00    -0.774 OA
ATOM     22  H10 UNK     1      38.874  -4.000  10.781  1.00  0.00     0.167 HD
ENDBRANCH  19  21
ENDBRANCH  15  19
BRANCH  16  23
ATOM     23  O5  UNK     1      39.093  -2.427   8.666  1.00  0.00    -0.390 OA
ATOM     24  H8  UNK     1      39.924  -2.931   8.672  1.00  0.00     0.210 HD
ENDBRANCH  16  23
BRANCH  17  25
ATOM     25  O3  UNK     1      38.610  -2.277   5.804  1.00  0.00    -0.390 OA
ATOM     26  H6  UNK     1      37.908  -1.717   6.173  1.00  0.00     0.210 HD
ENDBRANCH  17  25
BRANCH  18  27
ATOM     27  O4  UNK     1      38.445  -4.993   4.675  1.00  0.00    -0.388 OA
ATOM     28  H7  UNK     1      38.969  -5.775   4.912  1.00  0.00     0.210 HD
ENDBRANCH  18  27
ENDBRANCH  12  13
ENDBRANCH   3  12
BRANCH   5  29
ATOM     29  O9  UNK     1      36.729  -7.178   3.384  1.00  0.00    -0.356 OA
ATOM     30  H12 UNK     1      36.175  -6.534   3.858  1.00  0.00     0.218 HD
ENDBRANCH   5  29
BRANCH   8  31
ATOM     31  O10 UNK     1      37.743  -9.550   2.495  1.00  0.00    -0.357 OA
ATOM     32  H13 UNK     1      38.362  -8.948   2.054  1.00  0.00     0.217 HD
ENDBRANCH   8  31
BRANCH  10  33
ATOM     33  C16 UNK     1      39.538 -12.926   7.785  1.00  0.00    -0.002 A 
ATOM     34  C17 UNK     1      40.419 -13.982   7.536  1.00  0.00     0.014 A 
ATOM     35  C19 UNK     1      40.848 -14.797   8.584  1.00  0.00     0.001 A 
ATOM     36  C21 UNK     1      40.398 -14.559   9.882  1.00  0.00     0.000 A 
ATOM     37  C20 UNK     1      39.519 -13.506  10.134  1.00  0.00     0.001 A 
ATOM     38  C18 UNK     1      39.090 -12.691   9.086  1.00  0.00     0.014 A 
ENDBRANCH  10  33
TORSDOF 10
ENDMDL
MODEL 17
REMARK VINA RESULT:      -6.5     14.228     17.820
REMARK  10 active torsions:
REMARK  status: ('A' for Active; 'I' for Inactive)
REMARK    1  A    between atoms: O2_2  and  C4_15 
REMARK    2  A    between atoms: O2_2  and  C7_18 
REMARK    3  A    between atoms: O3_3  and  C1_12 
REMARK    4  A    between atoms: O4_4  and  C2_13 
REMARK    5  A    between atoms: O5_5  and  C3_14 
REMARK    6  A    between atoms: O6_6  and  C6_17 
REMARK    7  A    between atoms: O9_9  and  C9_20 
REMARK    8  A    between atoms: O10_10  and  C12_23 
REMARK    9  A    between atoms: C5_16  and  C6_17 
REMARK   10  A    between atoms: C14_25  and  C16_27 
ROOT
ATOM      1  O8  UNK     1      41.115  -0.599   8.848  1.00  0.00    -0.309 OA
ATOM      2  O11 UNK     1      38.717   1.912   6.716  1.00  0.00    -0.287 OA
ATOM      3  C7  UNK     1      37.945  -2.341   9.286  1.00  0.00     0.110 A 
ATOM      4  C8  UNK     1      39.298  -2.015   9.368  1.00  0.00     0.078 A 
ATOM      5  C9  UNK     1      37.069  -1.524   8.570  1.00  0.00     0.134 A 
ATOM      6  C10 UNK     1      39.776  -0.868   8.731  1.00  0.00     0.096 A 
ATOM      7  C11 UNK     1      38.899  -0.054   8.017  1.00  0.00     0.084 A 
ATOM      8  C12 UNK     1      37.543  -0.377   7.932  1.00  0.00     0.118 A 
ATOM      9  C13 UNK     1      39.428   1.150   7.357  1.00  0.00     0.190 A 
ATOM     10  C14 UNK     1      41.619   0.530   8.219  1.00  0.00     0.090 A 
ATOM     11  C15 UNK     1      40.877   1.394   7.509  1.00  0.00     0.094 A 
ENDROOT
BRANCH   3  12
ATOM     12  O2  UNK     1      37.489  -3.464   9.912  1.00  0.00    -0.315 OA
BRANCH  12  13
ATOM     13  C4  UNK     1      37.542  -4.679   9.163  1.00  0.00     0.299 C 
ATOM     14  O1  UNK     1      37.569  -4.385   7.769  1.00  0.00    -0.340 OA
ATOM     15  C5  UNK     1      37.645  -5.559   6.969  1.00  0.00     0.253 C 
ATOM     16  C3  UNK     1      36.415  -6.437   7.166  1.00  0.00     0.189 C 
ATOM     17  C1  UNK     1      36.212  -6.760   8.646  1.00  0.00     0.183 C 
ATOM     18  C2  UNK     1      36.300  -5.502   9.510  1.00  0.00     0.205 C 
BRANCH  15  19
ATOM     19  C6  UNK     1      37.701  -5.023   5.575  1.00  0.00     0.172 C 
ATOM     20  O7  UNK     1      36.935  -5.328   4.674  1.00  0.00    -0.648 OA
BRANCH  19  21
ATOM     21  O6  UNK     1      38.727  -4.147   5.441  1.00  0.00    -0.774 OA
ATOM     22  H10 UNK     1      38.631  -3.591   4.639  1.00  0.00     0.167 HD
ENDBRANCH  19  21
ENDBRANCH  15  19
BRANCH  16  23
ATOM     23  O5  UNK     1      36.600  -7.653   6.444  1.00  0.00    -0.390 OA
ATOM     24  H8  UNK     1      37.133  -8.253   6.995  1.00  0.00     0.210 HD
ENDBRANCH  16  23
BRANCH  17  25
ATOM     25  O3  UNK     1      34.920  -7.351   8.797  1.00  0.00    -0.390 OA
ATOM     26  H6  UNK     1      35.026  -8.315   8.735  1.00  0.00     0.210 HD
ENDBRANCH  17  25
BRANCH  18  27
ATOM     27  O4  UNK     1      36.380  -5.875  10.885  1.00  0.00    -0.388 OA
ATOM     28  H7  UNK     1      35.580  -6.383  11.100  1.00  0.00     0.210 HD
ENDBRANCH  18  27
ENDBRANCH  12  13
ENDBRANCH   3  12
BRANCH   5  29
ATOM     29  O9  UNK     1      35.746  -1.850   8.495  1.00  0.00    -0.356 OA
ATOM     30  H12 UNK     1      35.424  -1.629   7.603  1.00  0.00     0.218 HD
ENDBRANCH   5  29
BRANCH   8  31
ATOM     31  O10 UNK     1      36.657   0.396   7.243  1.00  0.00    -0.357 OA
ATOM     32  H13 UNK     1      36.439  -0.008   6.389  1.00  0.00     0.217 HD
ENDBRANCH   8  31
BRANCH  10  33
ATOM     33  C16 UNK     1      43.070   0.727   8.413  1.00  0.00    -0.002 A 
ATOM     34  C17 UNK     1      43.707   0.190   9.535  1.00  0.00     0.014 A 
ATOM     35  C19 UNK     1      45.078   0.376   9.716  1.00  0.00     0.001 A 
ATOM     36  C21 UNK     1      45.816   1.097   8.778  1.00  0.00     0.000 A 
ATOM     37  C20 UNK     1      45.182   1.635   7.657  1.00  0.00     0.001 A 
ATOM     38  C18 UNK     1      43.811   1.449   7.475  1.00  0.00     0.014 A 
ENDBRANCH  10  33
TORSDOF 10
ENDMDL
MODEL 18
REMARK VINA RESULT:      -6.4     15.576     19.145
REMARK  10 active torsions:
REMARK  status: ('A' for Active; 'I' for Inactive)
REMARK    1  A    between atoms: O2_2  and  C4_15 
REMARK    2  A    between atoms: O2_2  and  C7_18 
REMARK    3  A    between atoms: O3_3  and  C1_12 
REMARK    4  A    between atoms: O4_4  and  C2_13 
REMARK    5  A    between atoms: O5_5  and  C3_14 
REMARK    6  A    between atoms: O6_6  and  C6_17 
REMARK    7  A    between atoms: O9_9  and  C9_20 
REMARK    8  A    between atoms: O10_10  and  C12_23 
REMARK    9  A    between atoms: C5_16  and  C6_17 
REMARK   10  A    between atoms: C14_25  and  C16_27 
ROOT
ATOM      1  O8  UNK     1      44.122   0.464   9.367  1.00  0.00    -0.309 OA
ATOM      2  O11 UNK     1      42.876   3.007   6.438  1.00  0.00    -0.287 OA
ATOM      3  C7  UNK     1      40.550  -0.250   9.483  1.00  0.00     0.110 A 
ATOM      4  C8  UNK     1      41.917  -0.282   9.763  1.00  0.00     0.078 A 
ATOM      5  C9  UNK     1      40.058   0.598   8.490  1.00  0.00     0.134 A 
ATOM      6  C10 UNK     1      42.791   0.538   9.047  1.00  0.00     0.096 A 
ATOM      7  C11 UNK     1      42.296   1.384   8.056  1.00  0.00     0.084 A 
ATOM      8  C12 UNK     1      40.929   1.418   7.772  1.00  0.00     0.118 A 
ATOM      9  C13 UNK     1      43.240   2.238   7.318  1.00  0.00     0.190 A 
ATOM     10  C14 UNK     1      45.015   1.261   8.667  1.00  0.00     0.090 A 
ATOM     11  C15 UNK     1      44.662   2.119   7.697  1.00  0.00     0.094 A 
ENDROOT
BRANCH   3  12
ATOM     12  O2  UNK     1      39.705  -1.055  10.188  1.00  0.00    -0.315 OA
BRANCH  12  13
ATOM     13  C4  UNK     1      39.412  -2.331   9.617  1.00  0.00     0.299 C 
ATOM     14  O1  UNK     1      38.732  -2.158   8.376  1.00  0.00    -0.340 OA
ATOM     15  C5  UNK     1      38.432  -3.398   7.745  1.00  0.00     0.253 C 
ATOM     16  C3  UNK     1      37.489  -4.233   8.602  1.00  0.00     0.189 C 
ATOM     17  C1  UNK     1      38.059  -4.425  10.008  1.00  0.00     0.183 C 
ATOM     18  C2  UNK     1      38.531  -3.099  10.603  1.00  0.00     0.205 C 
BRANCH  15  19
ATOM     19  C6  UNK     1      37.772  -2.984   6.471  1.00  0.00     0.172 C 
ATOM     20  O7  UNK     1      36.652  -3.324   6.117  1.00  0.00    -0.648 OA
BRANCH  19  21
ATOM     21  O6  UNK     1      38.587  -2.177   5.749  1.00  0.00    -0.774 OA
ATOM     22  H10 UNK     1      38.208  -1.964   4.870  1.00  0.00     0.167 HD
ENDBRANCH  19  21
ENDBRANCH  15  19
BRANCH  16  23
ATOM     23  O5  UNK     1      37.323  -5.511   7.988  1.00  0.00    -0.390 OA
ATOM     24  H8  UNK     1      37.508  -5.415   7.038  1.00  0.00     0.210 HD
ENDBRANCH  16  23
BRANCH  17  25
ATOM     25  O3  UNK     1      37.031  -4.978  10.831  1.00  0.00    -0.390 OA
ATOM     26  H6  UNK     1      36.676  -5.759  10.375  1.00  0.00     0.210 HD
ENDBRANCH  17  25
BRANCH  18  27
ATOM     27  O4  UNK     1      39.296  -3.354  11.782  1.00  0.00    -0.388 OA
ATOM     28  H7  UNK     1      39.955  -2.644  11.864  1.00  0.00     0.210 HD
ENDBRANCH  18  27
ENDBRANCH  12  13
ENDBRANCH   3  12
BRANCH   5  29
ATOM     29  O9  UNK     1      38.720   0.622   8.222  1.00  0.00    -0.356 OA
ATOM     30  H12 UNK     1      38.240   0.730   9.062  1.00  0.00     0.218 HD
ENDBRANCH   5  29
BRANCH   8  31
ATOM     31  O10 UNK     1      40.411   2.233   6.810  1.00  0.00    -0.357 OA
ATOM     32  H13 UNK     1      40.530   3.165   7.048  1.00  0.00     0.217 HD
ENDBRANCH   8  31
BRANCH  10  33
ATOM     33  C16 UNK     1      46.420   1.106   9.095  1.00  0.00    -0.002 A 
ATOM     34  C17 UNK     1      46.723   0.419  10.273  1.00  0.00     0.014 A 
ATOM     35  C19 UNK     1      48.051   0.272  10.676  1.00  0.00     0.001 A 
ATOM     36  C21 UNK     1      49.079   0.811   9.903  1.00  0.00     0.000 A 
ATOM     37  C20 UNK     1      48.780   1.498   8.726  1.00  0.00     0.001 A 
ATOM     38  C18 UNK     1      47.452   1.645   8.323  1.00  0.00     0.014 A 
ENDBRANCH  10  33
TORSDOF 10
ENDMDL
