MODEL 1
REMARK VINA RESULT:      -6.4      0.000      0.000
REMARK  10 active torsions:
REMARK  status: ('A' for Active; 'I' for Inactive)
REMARK    1  A    between atoms: O2_2  and  C4_15 
REMARK    2  A    between atoms: O2_2  and  C7_18 
REMARK    3  A    between atoms: O3_3  and  C1_12 
REMARK    4  A    between atoms: O4_4  and  C2_13 
REMARK    5  A    between atoms: O5_5  and  C3_14 
REMARK    6  A    between atoms: O6_6  and  C6_17 
REMARK    7  A    between atoms: O9_9  and  C9_20 
REMARK    8  A    between atoms: O10_10  and  C12_23 
REMARK    9  A    between atoms: C5_16  and  C6_17 
REMARK   10  A    between atoms: C14_25  and  C16_27 
ROOT
ATOM      1  O8  UNK     1      38.124  22.438  11.265  1.00  0.00    -0.309 OA
ATOM      2  O11 UNK     1      36.370  20.681  14.495  1.00  0.00    -0.287 OA
ATOM      3  C7  UNK     1      40.381  19.604  11.659  1.00  0.00     0.110 A 
ATOM      4  C8  UNK     1      39.795  20.772  11.171  1.00  0.00     0.078 A 
ATOM      5  C9  UNK     1      39.829  18.952  12.763  1.00  0.00     0.134 A 
ATOM      6  C10 UNK     1      38.654  21.287  11.789  1.00  0.00     0.096 A 
ATOM      7  C11 UNK     1      38.105  20.634  12.891  1.00  0.00     0.084 A 
ATOM      8  C12 UNK     1      38.689  19.464  13.383  1.00  0.00     0.118 A 
ATOM      9  C13 UNK     1      36.904  21.200  13.524  1.00  0.00     0.190 A 
ATOM     10  C14 UNK     1      36.986  22.969  11.854  1.00  0.00     0.090 A 
ATOM     11  C15 UNK     1      36.369  22.437  12.920  1.00  0.00     0.094 A 
ENDROOT
BRANCH   3  12
ATOM     12  O2  UNK     1      41.495  19.109  11.048  1.00  0.00    -0.315 OA
BRANCH  12  13
ATOM     13  C4  UNK     1      42.754  19.528  11.577  1.00  0.00     0.299 C 
ATOM     14  O1  UNK     1      43.257  20.621  10.812  1.00  0.00    -0.340 OA
ATOM     15  C5  UNK     1      44.503  21.099  11.307  1.00  0.00     0.253 C 
ATOM     16  C3  UNK     1      45.577  20.021  11.216  1.00  0.00     0.189 C 
ATOM     17  C1  UNK     1      45.127  18.746  11.927  1.00  0.00     0.183 C 
ATOM     18  C2  UNK     1      43.715  18.341  11.505  1.00  0.00     0.205 C 
BRANCH  15  19
ATOM     19  C6  UNK     1      44.816  22.244  10.399  1.00  0.00     0.172 C 
ATOM     20  O7  UNK     1      44.250  23.327  10.415  1.00  0.00    -0.648 OA
BRANCH  19  21
ATOM     21  O6  UNK     1      45.818  21.919   9.546  1.00  0.00    -0.774 OA
ATOM     22  H10 UNK     1      45.613  21.109   9.032  1.00  0.00     0.167 HD
ENDBRANCH  19  21
ENDBRANCH  15  19
BRANCH  16  23
ATOM     23  O5  UNK     1      46.766  20.507  11.838  1.00  0.00    -0.390 OA
ATOM     24  H8  UNK     1      47.513  20.329  11.242  1.00  0.00     0.210 HD
ENDBRANCH  16  23
BRANCH  17  25
ATOM     25  O3  UNK     1      46.043  17.703  11.588  1.00  0.00    -0.390 OA
ATOM     26  H6  UNK     1      46.495  17.430  12.403  1.00  0.00     0.210 HD
ENDBRANCH  17  25
BRANCH  18  27
ATOM     27  O4  UNK     1      43.232  17.321  12.380  1.00  0.00    -0.388 OA
ATOM     28  H7  UNK     1      43.652  16.485  12.118  1.00  0.00     0.210 HD
ENDBRANCH  18  27
ENDBRANCH  12  13
ENDBRANCH   3  12
BRANCH   5  29
ATOM     29  O9  UNK     1      40.408  17.810  13.235  1.00  0.00    -0.356 OA
ATOM     30  H12 UNK     1      39.704  17.206  13.528  1.00  0.00     0.218 HD
ENDBRANCH   5  29
BRANCH   8  31
ATOM     31  O10 UNK     1      38.179  18.799  14.458  1.00  0.00    -0.357 OA
ATOM     32  H13 UNK     1      37.364  18.331  14.218  1.00  0.00     0.217 HD
ENDBRANCH   8  31
BRANCH  10  33
ATOM     33  C16 UNK     1      36.502  24.209  11.214  1.00  0.00    -0.002 A 
ATOM     34  C17 UNK     1      37.084  25.438  11.538  1.00  0.00     0.014 A 
ATOM     35  C19 UNK     1      36.627  26.609  10.932  1.00  0.00     0.001 A 
ATOM     36  C21 UNK     1      35.589  26.556  10.002  1.00  0.00     0.000 A 
ATOM     37  C20 UNK     1      35.007  25.331   9.677  1.00  0.00     0.001 A 
ATOM     38  C18 UNK     1      35.463  24.160  10.282  1.00  0.00     0.014 A 
ENDBRANCH  10  33
TORSDOF 10
ENDMDL
MODEL 2
REMARK VINA RESULT:      -6.4      1.143      1.824
REMARK  10 active torsions:
REMARK  status: ('A' for Active; 'I' for Inactive)
REMARK    1  A    between atoms: O2_2  and  C4_15 
REMARK    2  A    between atoms: O2_2  and  C7_18 
REMARK    3  A    between atoms: O3_3  and  C1_12 
REMARK    4  A    between atoms: O4_4  and  C2_13 
REMARK    5  A    between atoms: O5_5  and  C3_14 
REMARK    6  A    between atoms: O6_6  and  C6_17 
REMARK    7  A    between atoms: O9_9  and  C9_20 
REMARK    8  A    between atoms: O10_10  and  C12_23 
REMARK    9  A    between atoms: C5_16  and  C6_17 
REMARK   10  A    between atoms: C14_25  and  C16_27 
ROOT
ATOM      1  O8  UNK     1      38.537  22.534  11.087  1.00  0.00    -0.309 OA
ATOM      2  O11 UNK     1      36.946  20.076  13.921  1.00  0.00    -0.287 OA
ATOM      3  C7  UNK     1      41.207  20.059  11.249  1.00  0.00     0.110 A 
ATOM      4  C8  UNK     1      40.461  21.180  10.884  1.00  0.00     0.078 A 
ATOM      5  C9  UNK     1      40.718  19.175  12.213  1.00  0.00     0.134 A 
ATOM      6  C10 UNK     1      39.224  21.416  11.486  1.00  0.00     0.096 A 
ATOM      7  C11 UNK     1      38.738  20.533  12.448  1.00  0.00     0.084 A 
ATOM      8  C12 UNK     1      39.482  19.409  12.816  1.00  0.00     0.118 A 
ATOM      9  C13 UNK     1      37.432  20.807  13.067  1.00  0.00     0.190 A 
ATOM     10  C14 UNK     1      37.302  22.790  11.662  1.00  0.00     0.090 A 
ATOM     11  C15 UNK     1      36.731  22.020  12.601  1.00  0.00     0.094 A 
ENDROOT
BRANCH   3  12
ATOM     12  O2  UNK     1      42.414  19.837  10.655  1.00  0.00    -0.315 OA
BRANCH  12  13
ATOM     13  C4  UNK     1      43.515  20.609  11.136  1.00  0.00     0.299 C 
ATOM     14  O1  UNK     1      43.362  21.968  10.732  1.00  0.00    -0.340 OA
ATOM     15  C5  UNK     1      44.421  22.795  11.202  1.00  0.00     0.253 C 
ATOM     16  C3  UNK     1      45.759  22.354  10.620  1.00  0.00     0.189 C 
ATOM     17  C1  UNK     1      46.014  20.874  10.906  1.00  0.00     0.183 C 
ATOM     18  C2  UNK     1      44.797  20.020  10.548  1.00  0.00     0.205 C 
BRANCH  15  19
ATOM     19  C6  UNK     1      44.042  24.152  10.705  1.00  0.00     0.172 C 
ATOM     20  O7  UNK     1      43.377  24.373   9.704  1.00  0.00    -0.648 OA
BRANCH  19  21
ATOM     21  O6  UNK     1      44.542  25.115  11.517  1.00  0.00    -0.774 OA
ATOM     22  H10 UNK     1      45.073  25.775  11.021  1.00  0.00     0.167 HD
ENDBRANCH  19  21
ENDBRANCH  15  19
BRANCH  16  23
ATOM     23  O5  UNK     1      46.795  23.130  11.219  1.00  0.00    -0.390 OA
ATOM     24  H8  UNK     1      47.383  23.446  10.512  1.00  0.00     0.210 HD
ENDBRANCH  16  23
BRANCH  17  25
ATOM     25  O3  UNK     1      47.134  20.459  10.124  1.00  0.00    -0.390 OA
ATOM     26  H6  UNK     1      47.390  19.570  10.421  1.00  0.00     0.210 HD
ENDBRANCH  17  25
BRANCH  18  27
ATOM     27  O4  UNK     1      44.969  18.705  11.078  1.00  0.00    -0.388 OA
ATOM     28  H7  UNK     1      44.899  18.078  10.339  1.00  0.00     0.210 HD
ENDBRANCH  18  27
ENDBRANCH  12  13
ENDBRANCH   3  12
BRANCH   5  29
ATOM     29  O9  UNK     1      41.454  18.081  12.565  1.00  0.00    -0.356 OA
ATOM     30  H12 UNK     1      40.859  17.428  12.974  1.00  0.00     0.218 HD
ENDBRANCH   5  29
BRANCH   8  31
ATOM     31  O10 UNK     1      39.038  18.524  13.753  1.00  0.00    -0.357 OA
ATOM     32  H13 UNK     1      38.149  18.208  13.534  1.00  0.00     0.217 HD
ENDBRANCH   8  31
BRANCH  10  33
ATOM     33  C16 UNK     1      36.652  24.020  11.165  1.00  0.00    -0.002 A 
ATOM     34  C17 UNK     1      35.612  23.937  10.234  1.00  0.00     0.014 A 
ATOM     35  C19 UNK     1      34.998  25.098   9.765  1.00  0.00     0.001 A 
ATOM     36  C21 UNK     1      35.419  26.345  10.225  1.00  0.00     0.000 A 
ATOM     37  C20 UNK     1      36.457  26.432  11.154  1.00  0.00     0.001 A 
ATOM     38  C18 UNK     1      37.071  25.271  11.623  1.00  0.00     0.014 A 
ENDBRANCH  10  33
TORSDOF 10
ENDMDL
MODEL 3
REMARK VINA RESULT:      -6.2      2.941      5.163
REMARK  10 active torsions:
REMARK  status: ('A' for Active; 'I' for Inactive)
REMARK    1  A    between atoms: O2_2  and  C4_15 
REMARK    2  A    between atoms: O2_2  and  C7_18 
REMARK    3  A    between atoms: O3_3  and  C1_12 
REMARK    4  A    between atoms: O4_4  and  C2_13 
REMARK    5  A    between atoms: O5_5  and  C3_14 
REMARK    6  A    between atoms: O6_6  and  C6_17 
REMARK    7  A    between atoms: O9_9  and  C9_20 
REMARK    8  A    between atoms: O10_10  and  C12_23 
REMARK    9  A    between atoms: C5_16  and  C6_17 
REMARK   10  A    between atoms: C14_25  and  C16_27 
ROOT
ATOM      1  O8  UNK     1      38.847  25.088  12.056  1.00  0.00    -0.309 OA
ATOM      2  O11 UNK     1      39.982  28.944  12.726  1.00  0.00    -0.287 OA
ATOM      3  C7  UNK     1      42.333  24.503  12.943  1.00  0.00     0.110 A 
ATOM      4  C8  UNK     1      41.009  24.284  12.564  1.00  0.00     0.078 A 
ATOM      5  C9  UNK     1      42.786  25.801  13.189  1.00  0.00     0.134 A 
ATOM      6  C10 UNK     1      40.137  25.366  12.432  1.00  0.00     0.096 A 
ATOM      7  C11 UNK     1      40.591  26.660  12.678  1.00  0.00     0.084 A 
ATOM      8  C12 UNK     1      41.917  26.884  13.057  1.00  0.00     0.118 A 
ATOM      9  C13 UNK     1      39.651  27.782  12.529  1.00  0.00     0.190 A 
ATOM     10  C14 UNK     1      37.957  26.143  11.923  1.00  0.00     0.090 A 
ATOM     11  C15 UNK     1      38.274  27.431  12.126  1.00  0.00     0.094 A 
ENDROOT
BRANCH   3  12
ATOM     12  O2  UNK     1      43.177  23.439  13.070  1.00  0.00    -0.315 OA
BRANCH  12  13
ATOM     13  C4  UNK     1      43.520  22.749  11.868  1.00  0.00     0.299 C 
ATOM     14  O1  UNK     1      43.249  21.357  12.019  1.00  0.00    -0.340 OA
ATOM     15  C5  UNK     1      43.551  20.616  10.841  1.00  0.00     0.253 C 
ATOM     16  C3  UNK     1      45.036  20.699  10.508  1.00  0.00     0.189 C 
ATOM     17  C1  UNK     1      45.487  22.156  10.403  1.00  0.00     0.183 C 
ATOM     18  C2  UNK     1      45.009  22.976  11.601  1.00  0.00     0.205 C 
BRANCH  15  19
ATOM     19  C6  UNK     1      43.161  19.221  11.205  1.00  0.00     0.172 C 
ATOM     20  O7  UNK     1      43.662  18.564  12.105  1.00  0.00    -0.648 OA
BRANCH  19  21
ATOM     21  O6  UNK     1      42.171  18.774  10.394  1.00  0.00    -0.774 OA
ATOM     22  H10 UNK     1      42.400  18.876   9.446  1.00  0.00     0.167 HD
ENDBRANCH  19  21
ENDBRANCH  15  19
BRANCH  16  23
ATOM     23  O5  UNK     1      45.260  20.051   9.257  1.00  0.00    -0.390 OA
ATOM     24  H8  UNK     1      46.216  20.065   9.077  1.00  0.00     0.210 HD
ENDBRANCH  16  23
BRANCH  17  25
ATOM     25  O3  UNK     1      46.915  22.174  10.354  1.00  0.00    -0.390 OA
ATOM     26  H6  UNK     1      47.183  21.932   9.452  1.00  0.00     0.210 HD
ENDBRANCH  17  25
BRANCH  18  27
ATOM     27  O4  UNK     1      45.209  24.364  11.336  1.00  0.00    -0.388 OA
ATOM     28  H7  UNK     1      45.867  24.693  11.970  1.00  0.00     0.210 HD
ENDBRANCH  18  27
ENDBRANCH  12  13
ENDBRANCH   3  12
BRANCH   5  29
ATOM     29  O9  UNK     1      44.083  26.006  13.559  1.00  0.00    -0.356 OA
ATOM     30  H12 UNK     1      44.217  25.616  14.441  1.00  0.00     0.218 HD
ENDBRANCH   5  29
BRANCH   8  31
ATOM     31  O10 UNK     1      42.396  28.135  13.306  1.00  0.00    -0.357 OA
ATOM     32  H13 UNK     1      42.451  28.299  14.260  1.00  0.00     0.217 HD
ENDBRANCH   8  31
BRANCH  10  33
ATOM     33  C16 UNK     1      36.599  25.733  11.511  1.00  0.00    -0.002 A 
ATOM     34  C17 UNK     1      35.953  24.681  12.167  1.00  0.00     0.014 A 
ATOM     35  C19 UNK     1      34.671  24.295  11.778  1.00  0.00     0.001 A 
ATOM     36  C21 UNK     1      34.029  24.959  10.733  1.00  0.00     0.000 A 
ATOM     37  C20 UNK     1      34.670  26.009  10.075  1.00  0.00     0.001 A 
ATOM     38  C18 UNK     1      35.953  26.395  10.465  1.00  0.00     0.014 A 
ENDBRANCH  10  33
TORSDOF 10
ENDMDL
MODEL 4
REMARK VINA RESULT:      -6.2      2.238      3.016
REMARK  10 active torsions:
REMARK  status: ('A' for Active; 'I' for Inactive)
REMARK    1  A    between atoms: O2_2  and  C4_15 
REMARK    2  A    between atoms: O2_2  and  C7_18 
REMARK    3  A    between atoms: O3_3  and  C1_12 
REMARK    4  A    between atoms: O4_4  and  C2_13 
REMARK    5  A    between atoms: O5_5  and  C3_14 
REMARK    6  A    between atoms: O6_6  and  C6_17 
REMARK    7  A    between atoms: O9_9  and  C9_20 
REMARK    8  A    between atoms: O10_10  and  C12_23 
REMARK    9  A    between atoms: C5_16  and  C6_17 
REMARK   10  A    between atoms: C14_25  and  C16_27 
ROOT
ATOM      1  O8  UNK     1      41.020  23.104  11.769  1.00  0.00    -0.309 OA
ATOM      2  O11 UNK     1      38.504  20.599  13.768  1.00  0.00    -0.287 OA
ATOM      3  C7  UNK     1      42.611  19.931  10.944  1.00  0.00     0.110 A 
ATOM      4  C8  UNK     1      42.338  21.297  11.010  1.00  0.00     0.078 A 
ATOM      5  C9  UNK     1      41.787  19.019  11.606  1.00  0.00     0.134 A 
ATOM      6  C10 UNK     1      41.237  21.750  11.740  1.00  0.00     0.096 A 
ATOM      7  C11 UNK     1      40.417  20.837  12.400  1.00  0.00     0.084 A 
ATOM      8  C12 UNK     1      40.687  19.469  12.336  1.00  0.00     0.118 A 
ATOM      9  C13 UNK     1      39.265  21.343  13.163  1.00  0.00     0.190 A 
ATOM     10  C14 UNK     1      39.930  23.583  12.480  1.00  0.00     0.090 A 
ATOM     11  C15 UNK     1      39.071  22.807  13.160  1.00  0.00     0.094 A 
ENDROOT
BRANCH   3  12
ATOM     12  O2  UNK     1      43.688  19.499  10.228  1.00  0.00    -0.315 OA
BRANCH  12  13
ATOM     13  C4  UNK     1      44.973  19.919  10.690  1.00  0.00     0.299 C 
ATOM     14  O1  UNK     1      45.758  20.364   9.587  1.00  0.00    -0.340 OA
ATOM     15  C5  UNK     1      47.046  20.818   9.988  1.00  0.00     0.253 C 
ATOM     16  C3  UNK     1      47.852  19.690  10.620  1.00  0.00     0.189 C 
ATOM     17  C1  UNK     1      47.080  19.054  11.776  1.00  0.00     0.183 C 
ATOM     18  C2  UNK     1      45.642  18.725  11.373  1.00  0.00     0.205 C 
BRANCH  15  19
ATOM     19  C6  UNK     1      47.668  21.266   8.705  1.00  0.00     0.172 C 
ATOM     20  O7  UNK     1      48.869  21.302   8.482  1.00  0.00    -0.648 OA
BRANCH  19  21
ATOM     21  O6  UNK     1      46.714  21.632   7.814  1.00  0.00    -0.774 OA
ATOM     22  H10 UNK     1      46.020  22.188   8.228  1.00  0.00     0.167 HD
ENDBRANCH  19  21
ENDBRANCH  15  19
BRANCH  16  23
ATOM     23  O5  UNK     1      49.077  20.226  11.117  1.00  0.00    -0.390 OA
ATOM     24  H8  UNK     1      49.700  19.489  11.242  1.00  0.00     0.210 HD
ENDBRANCH  16  23
BRANCH  17  25
ATOM     25  O3  UNK     1      47.756  17.853  12.152  1.00  0.00    -0.390 OA
ATOM     26  H6  UNK     1      48.282  17.559  11.390  1.00  0.00     0.210 HD
ENDBRANCH  17  25
BRANCH  18  27
ATOM     27  O4  UNK     1      44.887  18.395  12.538  1.00  0.00    -0.388 OA
ATOM     28  H7  UNK     1      44.588  17.475  12.444  1.00  0.00     0.210 HD
ENDBRANCH  18  27
ENDBRANCH  12  13
ENDBRANCH   3  12
BRANCH   5  29
ATOM     29  O9  UNK     1      42.062  17.684  11.536  1.00  0.00    -0.356 OA
ATOM     30  H12 UNK     1      42.612  17.523  10.750  1.00  0.00     0.218 HD
ENDBRANCH   5  29
BRANCH   8  31
ATOM     31  O10 UNK     1      39.906  18.548  12.968  1.00  0.00    -0.357 OA
ATOM     32  H13 UNK     1      39.186  18.253  12.390  1.00  0.00     0.217 HD
ENDBRANCH   8  31
BRANCH  10  33
ATOM     33  C16 UNK     1      39.792  25.053  12.449  1.00  0.00    -0.002 A 
ATOM     34  C17 UNK     1      40.920  25.866  12.579  1.00  0.00     0.014 A 
ATOM     35  C19 UNK     1      40.790  27.255  12.549  1.00  0.00     0.001 A 
ATOM     36  C21 UNK     1      39.532  27.835  12.387  1.00  0.00     0.000 A 
ATOM     37  C20 UNK     1      38.403  27.025  12.257  1.00  0.00     0.001 A 
ATOM     38  C18 UNK     1      38.533  25.637  12.287  1.00  0.00     0.014 A 
ENDBRANCH  10  33
TORSDOF 10
ENDMDL
MODEL 5
REMARK VINA RESULT:      -6.2      3.012      5.345
REMARK  10 active torsions:
REMARK  status: ('A' for Active; 'I' for Inactive)
REMARK    1  A    between atoms: O2_2  and  C4_15 
REMARK    2  A    between atoms: O2_2  and  C7_18 
REMARK    3  A    between atoms: O3_3  and  C1_12 
REMARK    4  A    between atoms: O4_4  and  C2_13 
REMARK    5  A    between atoms: O5_5  and  C3_14 
REMARK    6  A    between atoms: O6_6  and  C6_17 
REMARK    7  A    between atoms: O9_9  and  C9_20 
REMARK    8  A    between atoms: O10_10  and  C12_23 
REMARK    9  A    between atoms: C5_16  and  C6_17 
REMARK   10  A    between atoms: C14_25  and  C16_27 
ROOT
ATOM      1  O8  UNK     1      38.258  25.451  12.076  1.00  0.00    -0.309 OA
ATOM      2  O11 UNK     1      39.916  29.130  12.641  1.00  0.00    -0.287 OA
ATOM      3  C7  UNK     1      41.615  24.414  13.042  1.00  0.00     0.110 A 
ATOM      4  C8  UNK     1      40.278  24.370  12.648  1.00  0.00     0.078 A 
ATOM      5  C9  UNK     1      42.242  25.643  13.254  1.00  0.00     0.134 A 
ATOM      6  C10 UNK     1      39.568  25.558  12.465  1.00  0.00     0.096 A 
ATOM      7  C11 UNK     1      40.198  26.783  12.677  1.00  0.00     0.084 A 
ATOM      8  C12 UNK     1      41.536  26.832  13.073  1.00  0.00     0.118 A 
ATOM      9  C13 UNK     1      39.427  28.020  12.476  1.00  0.00     0.190 A 
ATOM     10  C14 UNK     1      37.526  26.615  11.894  1.00  0.00     0.090 A 
ATOM     11  C15 UNK     1      38.020  27.852  12.061  1.00  0.00     0.094 A 
ENDROOT
BRANCH   3  12
ATOM     12  O2  UNK     1      42.299  23.247  13.219  1.00  0.00    -0.315 OA
BRANCH  12  13
ATOM     13  C4  UNK     1      42.141  22.254  12.204  1.00  0.00     0.299 C 
ATOM     14  O1  UNK     1      41.395  21.154  12.720  1.00  0.00    -0.340 OA
ATOM     15  C5  UNK     1      41.185  20.138  11.745  1.00  0.00     0.253 C 
ATOM     16  C3  UNK     1      42.509  19.541  11.284  1.00  0.00     0.189 C 
ATOM     17  C1  UNK     1      43.452  20.634  10.782  1.00  0.00     0.183 C 
ATOM     18  C2  UNK     1      43.534  21.797  11.771  1.00  0.00     0.205 C 
BRANCH  15  19
ATOM     19  C6  UNK     1      40.367  19.125  12.477  1.00  0.00     0.172 C 
ATOM     20  O7  UNK     1      40.762  18.022  12.825  1.00  0.00    -0.648 OA
BRANCH  19  21
ATOM     21  O6  UNK     1      39.115  19.593  12.703  1.00  0.00    -0.774 OA
ATOM     22  H10 UNK     1      38.675  19.879  11.874  1.00  0.00     0.167 HD
ENDBRANCH  19  21
ENDBRANCH  15  19
BRANCH  16  23
ATOM     23  O5  UNK     1      42.251  18.624  10.221  1.00  0.00    -0.390 OA
ATOM     24  H8  UNK     1      43.095  18.217   9.962  1.00  0.00     0.210 HD
ENDBRANCH  16  23
BRANCH  17  25
ATOM     25  O3  UNK     1      44.748  20.058  10.614  1.00  0.00    -0.390 OA
ATOM     26  H6  UNK     1      45.009  19.666  11.464  1.00  0.00     0.210 HD
ENDBRANCH  17  25
BRANCH  18  27
ATOM     27  O4  UNK     1      44.195  22.901  11.151  1.00  0.00    -0.388 OA
ATOM     28  H7  UNK     1      45.148  22.802  11.313  1.00  0.00     0.210 HD
ENDBRANCH  18  27
ENDBRANCH  12  13
ENDBRANCH   3  12
BRANCH   5  29
ATOM     29  O9  UNK     1      43.551  25.677  13.640  1.00  0.00    -0.356 OA
ATOM     30  H12 UNK     1      43.726  26.537  14.060  1.00  0.00     0.218 HD
ENDBRANCH   5  29
BRANCH   8  31
ATOM     31  O10 UNK     1      42.184  28.012  13.289  1.00  0.00    -0.357 OA
ATOM     32  H13 UNK     1      41.874  28.429  14.107  1.00  0.00     0.217 HD
ENDBRANCH   8  31
BRANCH  10  33
ATOM     33  C16 UNK     1      36.129  26.386  11.472  1.00  0.00    -0.002 A 
ATOM     34  C17 UNK     1      35.810  26.317  10.113  1.00  0.00     0.014 A 
ATOM     35  C19 UNK     1      34.490  26.100   9.715  1.00  0.00     0.001 A 
ATOM     36  C21 UNK     1      33.488  25.949  10.672  1.00  0.00     0.000 A 
ATOM     37  C20 UNK     1      33.803  26.017  12.029  1.00  0.00     0.001 A 
ATOM     38  C18 UNK     1      35.122  26.235  12.428  1.00  0.00     0.014 A 
ENDBRANCH  10  33
TORSDOF 10
ENDMDL
MODEL 6
REMARK VINA RESULT:      -6.1      1.341      1.701
REMARK  10 active torsions:
REMARK  status: ('A' for Active; 'I' for Inactive)
REMARK    1  A    between atoms: O2_2  and  C4_15 
REMARK    2  A    between atoms: O2_2  and  C7_18 
REMARK    3  A    between atoms: O3_3  and  C1_12 
REMARK    4  A    between atoms: O4_4  and  C2_13 
REMARK    5  A    between atoms: O5_5  and  C3_14 
REMARK    6  A    between atoms: O6_6  and  C6_17 
REMARK    7  A    between atoms: O9_9  and  C9_20 
REMARK    8  A    between atoms: O10_10  and  C12_23 
REMARK    9  A    between atoms: C5_16  and  C6_17 
REMARK   10  A    between atoms: C14_25  and  C16_27 
ROOT
ATOM      1  O8  UNK     1      37.035  22.866  11.053  1.00  0.00    -0.309 OA
ATOM      2  O11 UNK     1      36.061  20.738  14.389  1.00  0.00    -0.287 OA
ATOM      3  C7  UNK     1      39.902  20.618  11.144  1.00  0.00     0.110 A 
ATOM      4  C8  UNK     1      39.021  21.625  10.749  1.00  0.00     0.078 A 
ATOM      5  C9  UNK     1      39.626  19.851  12.277  1.00  0.00     0.134 A 
ATOM      6  C10 UNK     1      37.862  21.863  11.490  1.00  0.00     0.096 A 
ATOM      7  C11 UNK     1      37.590  21.096  12.621  1.00  0.00     0.084 A 
ATOM      8  C12 UNK     1      38.469  20.087  13.020  1.00  0.00     0.118 A 
ATOM      9  C13 UNK     1      36.363  21.370  13.385  1.00  0.00     0.190 A 
ATOM     10  C14 UNK     1      35.873  23.121  11.766  1.00  0.00     0.090 A 
ATOM     11  C15 UNK     1      35.504  22.457  12.872  1.00  0.00     0.094 A 
ENDROOT
BRANCH   3  12
ATOM     12  O2  UNK     1      41.031  20.392  10.412  1.00  0.00    -0.315 OA
BRANCH  12  13
ATOM     13  C4  UNK     1      42.266  20.800  11.002  1.00  0.00     0.299 C 
ATOM     14  O1  UNK     1      42.611  22.104  10.542  1.00  0.00    -0.340 OA
ATOM     15  C5  UNK     1      43.826  22.576  11.114  1.00  0.00     0.253 C 
ATOM     16  C3  UNK     1      44.999  21.689  10.714  1.00  0.00     0.189 C 
ATOM     17  C1  UNK     1      44.723  20.229  11.073  1.00  0.00     0.183 C 
ATOM     18  C2  UNK     1      43.339  19.790  10.593  1.00  0.00     0.205 C 
BRANCH  15  19
ATOM     19  C6  UNK     1      43.969  23.946  10.535  1.00  0.00     0.172 C 
ATOM     20  O7  UNK     1      43.241  24.426   9.679  1.00  0.00    -0.648 OA
BRANCH  19  21
ATOM     21  O6  UNK     1      45.025  24.591  11.089  1.00  0.00    -0.774 OA
ATOM     22  H10 UNK     1      45.511  24.023  11.723  1.00  0.00     0.167 HD
ENDBRANCH  19  21
ENDBRANCH  15  19
BRANCH  16  23
ATOM     23  O5  UNK     1      46.163  22.128  11.413  1.00  0.00    -0.390 OA
ATOM     24  H8  UNK     1      46.473  21.396  11.973  1.00  0.00     0.210 HD
ENDBRANCH  16  23
BRANCH  17  25
ATOM     25  O3  UNK     1      45.722  19.423  10.446  1.00  0.00    -0.390 OA
ATOM     26  H6  UNK     1      45.547  18.498  10.684  1.00  0.00     0.210 HD
ENDBRANCH  17  25
BRANCH  18  27
ATOM     27  O4  UNK     1      43.013  18.529  11.179  1.00  0.00    -0.388 OA
ATOM     28  H7  UNK     1      43.163  17.845  10.506  1.00  0.00     0.210 HD
ENDBRANCH  18  27
ENDBRANCH  12  13
ENDBRANCH   3  12
BRANCH   5  29
ATOM     29  O9  UNK     1      40.493  18.868  12.657  1.00  0.00    -0.356 OA
ATOM     30  H12 UNK     1      41.163  18.761  11.958  1.00  0.00     0.218 HD
ENDBRANCH   5  29
BRANCH   8  31
ATOM     31  O10 UNK     1      38.235  19.317  14.120  1.00  0.00    -0.357 OA
ATOM     32  H13 UNK     1      39.060  18.934  14.454  1.00  0.00     0.217 HD
ENDBRANCH   8  31
BRANCH  10  33
ATOM     33  C16 UNK     1      35.059  24.223  11.212  1.00  0.00    -0.002 A 
ATOM     34  C17 UNK     1      33.773  24.459  11.704  1.00  0.00     0.014 A 
ATOM     35  C19 UNK     1      33.005  25.501  11.181  1.00  0.00     0.001 A 
ATOM     36  C21 UNK     1      33.520  26.308  10.168  1.00  0.00     0.000 A 
ATOM     37  C20 UNK     1      34.804  26.074   9.675  1.00  0.00     0.001 A 
ATOM     38  C18 UNK     1      35.572  25.033  10.197  1.00  0.00     0.014 A 
ENDBRANCH  10  33
TORSDOF 10
ENDMDL
MODEL 7
REMARK VINA RESULT:      -6.0      3.638      9.468
REMARK  10 active torsions:
REMARK  status: ('A' for Active; 'I' for Inactive)
REMARK    1  A    between atoms: O2_2  and  C4_15 
REMARK    2  A    between atoms: O2_2  and  C7_18 
REMARK    3  A    between atoms: O3_3  and  C1_12 
REMARK    4  A    between atoms: O4_4  and  C2_13 
REMARK    5  A    between atoms: O5_5  and  C3_14 
REMARK    6  A    between atoms: O6_6  and  C6_17 
REMARK    7  A    between atoms: O9_9  and  C9_20 
REMARK    8  A    between atoms: O10_10  and  C12_23 
REMARK    9  A    between atoms: C5_16  and  C6_17 
REMARK   10  A    between atoms: C14_25  and  C16_27 
ROOT
ATOM      1  O8  UNK     1      40.831  23.484  11.950  1.00  0.00    -0.309 OA
ATOM      2  O11 UNK     1      43.642  26.433  12.032  1.00  0.00    -0.287 OA
ATOM      3  C7  UNK     1      38.679  26.290  12.832  1.00  0.00     0.110 A 
ATOM      4  C8  UNK     1      39.114  25.002  12.520  1.00  0.00     0.078 A 
ATOM      5  C9  UNK     1      39.591  27.345  12.876  1.00  0.00     0.134 A 
ATOM      6  C10 UNK     1      40.464  24.771  12.250  1.00  0.00     0.096 A 
ATOM      7  C11 UNK     1      41.372  25.827  12.295  1.00  0.00     0.084 A 
ATOM      8  C12 UNK     1      40.941  27.118  12.607  1.00  0.00     0.118 A 
ATOM      9  C13 UNK     1      42.789  25.555  12.008  1.00  0.00     0.190 A 
ATOM     10  C14 UNK     1      42.165  23.227  11.671  1.00  0.00     0.090 A 
ATOM     11  C15 UNK     1      43.133  24.155  11.687  1.00  0.00     0.094 A 
ENDROOT
BRANCH   3  12
ATOM     12  O2  UNK     1      37.358  26.504  13.093  1.00  0.00    -0.315 OA
BRANCH  12  13
ATOM     13  C4  UNK     1      36.435  25.570  12.533  1.00  0.00     0.299 C 
ATOM     14  O1  UNK     1      35.703  26.190  11.478  1.00  0.00    -0.340 OA
ATOM     15  C5  UNK     1      34.780  25.299  10.863  1.00  0.00     0.253 C 
ATOM     16  C3  UNK     1      33.725  24.831  11.858  1.00  0.00     0.189 C 
ATOM     17  C1  UNK     1      34.381  24.217  13.095  1.00  0.00     0.183 C 
ATOM     18  C2  UNK     1      35.487  25.118  13.644  1.00  0.00     0.205 C 
BRANCH  15  19
ATOM     19  C6  UNK     1      34.166  26.130   9.784  1.00  0.00     0.172 C 
ATOM     20  O7  UNK     1      32.967  26.300   9.625  1.00  0.00    -0.648 OA
BRANCH  19  21
ATOM     21  O6  UNK     1      35.125  26.675   8.996  1.00  0.00    -0.774 OA
ATOM     22  H10 UNK     1      35.229  26.184   8.153  1.00  0.00     0.167 HD
ENDBRANCH  19  21
ENDBRANCH  15  19
BRANCH  16  23
ATOM     23  O5  UNK     1      32.907  23.847  11.228  1.00  0.00    -0.390 OA
ATOM     24  H8  UNK     1      33.484  23.129  10.915  1.00  0.00     0.210 HD
ENDBRANCH  16  23
BRANCH  17  25
ATOM     25  O3  UNK     1      33.371  24.042  14.090  1.00  0.00    -0.390 OA
ATOM     26  H6  UNK     1      33.271  24.886  14.561  1.00  0.00     0.210 HD
ENDBRANCH  17  25
BRANCH  18  27
ATOM     27  O4  UNK     1      36.247  24.397  14.614  1.00  0.00    -0.388 OA
ATOM     28  H7  UNK     1      36.284  24.938  15.421  1.00  0.00     0.210 HD
ENDBRANCH  18  27
ENDBRANCH  12  13
ENDBRANCH   3  12
BRANCH   5  29
ATOM     29  O9  UNK     1      39.158  28.603  13.183  1.00  0.00    -0.356 OA
ATOM     30  H12 UNK     1      39.260  28.738  14.141  1.00  0.00     0.218 HD
ENDBRANCH   5  29
BRANCH   8  31
ATOM     31  O10 UNK     1      41.801  28.174  12.660  1.00  0.00    -0.357 OA
ATOM     32  H13 UNK     1      42.611  27.983  12.164  1.00  0.00     0.217 HD
ENDBRANCH   8  31
BRANCH  10  33
ATOM     33  C16 UNK     1      42.451  21.810  11.365  1.00  0.00    -0.002 A 
ATOM     34  C17 UNK     1      41.425  20.862  11.406  1.00  0.00     0.014 A 
ATOM     35  C19 UNK     1      41.695  19.525  11.116  1.00  0.00     0.001 A 
ATOM     36  C21 UNK     1      42.991  19.130  10.784  1.00  0.00     0.000 A 
ATOM     37  C20 UNK     1      44.018  20.074  10.743  1.00  0.00     0.001 A 
ATOM     38  C18 UNK     1      43.748  21.412  11.032  1.00  0.00     0.014 A 
ENDBRANCH  10  33
TORSDOF 10
ENDMDL
MODEL 8
REMARK VINA RESULT:      -5.9      2.412      4.884
REMARK  10 active torsions:
REMARK  status: ('A' for Active; 'I' for Inactive)
REMARK    1  A    between atoms: O2_2  and  C4_15 
REMARK    2  A    between atoms: O2_2  and  C7_18 
REMARK    3  A    between atoms: O3_3  and  C1_12 
REMARK    4  A    between atoms: O4_4  and  C2_13 
REMARK    5  A    between atoms: O5_5  and  C3_14 
REMARK    6  A    between atoms: O6_6  and  C6_17 
REMARK    7  A    between atoms: O9_9  and  C9_20 
REMARK    8  A    between atoms: O10_10  and  C12_23 
REMARK    9  A    between atoms: C5_16  and  C6_17 
REMARK   10  A    between atoms: C14_25  and  C16_27 
ROOT
ATOM      1  O8  UNK     1      41.322  21.188  11.574  1.00  0.00    -0.309 OA
ATOM      2  O11 UNK     1      40.600  17.453  13.032  1.00  0.00    -0.287 OA
ATOM      3  C7  UNK     1      44.736  19.915  11.575  1.00  0.00     0.110 A 
ATOM      4  C8  UNK     1      43.639  20.761  11.416  1.00  0.00     0.078 A 
ATOM      5  C9  UNK     1      44.557  18.622  12.068  1.00  0.00     0.134 A 
ATOM      6  C10 UNK     1      42.361  20.311  11.751  1.00  0.00     0.096 A 
ATOM      7  C11 UNK     1      42.185  19.020  12.244  1.00  0.00     0.084 A 
ATOM      8  C12 UNK     1      43.282  18.169  12.405  1.00  0.00     0.118 A 
ATOM      9  C13 UNK     1      40.828  18.572  12.592  1.00  0.00     0.190 A 
ATOM     10  C14 UNK     1      40.040  20.766  11.892  1.00  0.00     0.090 A 
ATOM     11  C15 UNK     1      39.743  19.551  12.379  1.00  0.00     0.094 A 
ENDROOT
BRANCH   3  12
ATOM     12  O2  UNK     1      45.980  20.364  11.243  1.00  0.00    -0.315 OA
BRANCH  12  13
ATOM     13  C4  UNK     1      46.590  19.770  10.096  1.00  0.00     0.299 C 
ATOM     14  O1  UNK     1      47.620  18.875  10.509  1.00  0.00    -0.340 OA
ATOM     15  C5  UNK     1      48.252  18.233   9.407  1.00  0.00     0.253 C 
ATOM     16  C3  UNK     1      48.944  19.248   8.506  1.00  0.00     0.189 C 
ATOM     17  C1  UNK     1      47.964  20.332   8.056  1.00  0.00     0.183 C 
ATOM     18  C2  UNK     1      47.173  20.893   9.238  1.00  0.00     0.205 C 
BRANCH  15  19
ATOM     19  C6  UNK     1      49.247  17.330  10.060  1.00  0.00     0.172 C 
ATOM     20  O7  UNK     1      49.643  17.438  11.211  1.00  0.00    -0.648 OA
BRANCH  19  21
ATOM     21  O6  UNK     1      49.661  16.370   9.197  1.00  0.00    -0.774 OA
ATOM     22  H10 UNK     1      49.691  16.696   8.273  1.00  0.00     0.167 HD
ENDBRANCH  19  21
ENDBRANCH  15  19
BRANCH  16  23
ATOM     23  O5  UNK     1      49.449  18.570   7.356  1.00  0.00    -0.390 OA
ATOM     24  H8  UNK     1      49.471  17.618   7.553  1.00  0.00     0.210 HD
ENDBRANCH  16  23
BRANCH  17  25
ATOM     25  O3  UNK     1      48.715  21.381   7.444  1.00  0.00    -0.390 OA
ATOM     26  H6  UNK     1      49.656  21.211   7.616  1.00  0.00     0.210 HD
ENDBRANCH  17  25
BRANCH  18  27
ATOM     27  O4  UNK     1      46.094  21.690   8.750  1.00  0.00    -0.388 OA
ATOM     28  H7  UNK     1      46.008  22.460   9.335  1.00  0.00     0.210 HD
ENDBRANCH  18  27
ENDBRANCH  12  13
ENDBRANCH   3  12
BRANCH   5  29
ATOM     29  O9  UNK     1      45.636  17.800  12.221  1.00  0.00    -0.356 OA
ATOM     30  H12 UNK     1      45.520  17.028  11.640  1.00  0.00     0.218 HD
ENDBRANCH   5  29
BRANCH   8  31
ATOM     31  O10 UNK     1      43.147  16.900  12.883  1.00  0.00    -0.357 OA
ATOM     32  H13 UNK     1      42.315  16.505  12.583  1.00  0.00     0.217 HD
ENDBRANCH   8  31
BRANCH  10  33
ATOM     33  C16 UNK     1      38.998  21.789  11.668  1.00  0.00    -0.002 A 
ATOM     34  C17 UNK     1      38.984  22.956  12.437  1.00  0.00     0.014 A 
ATOM     35  C19 UNK     1      38.000  23.923  12.224  1.00  0.00     0.001 A 
ATOM     36  C21 UNK     1      37.029  23.727  11.242  1.00  0.00     0.000 A 
ATOM     37  C20 UNK     1      37.041  22.563  10.473  1.00  0.00     0.001 A 
ATOM     38  C18 UNK     1      38.024  21.596  10.686  1.00  0.00     0.014 A 
ENDBRANCH  10  33
TORSDOF 10
ENDMDL
MODEL 9
REMARK VINA RESULT:      -5.9      2.615      5.536
REMARK  10 active torsions:
REMARK  status: ('A' for Active; 'I' for Inactive)
REMARK    1  A    between atoms: O2_2  and  C4_15 
REMARK    2  A    between atoms: O2_2  and  C7_18 
REMARK    3  A    between atoms: O3_3  and  C1_12 
REMARK    4  A    between atoms: O4_4  and  C2_13 
REMARK    5  A    between atoms: O5_5  and  C3_14 
REMARK    6  A    between atoms: O6_6  and  C6_17 
REMARK    7  A    between atoms: O9_9  and  C9_20 
REMARK    8  A    between atoms: O10_10  and  C12_23 
REMARK    9  A    between atoms: C5_16  and  C6_17 
REMARK   10  A    between atoms: C14_25  and  C16_27 
ROOT
ATOM      1  O8  UNK     1      42.187  24.543  11.718  1.00  0.00    -0.309 OA
ATOM      2  O11 UNK     1      44.923  25.905  14.412  1.00  0.00    -0.287 OA
ATOM      3  C7  UNK     1      44.982  22.383  10.822  1.00  0.00     0.110 A 
ATOM      4  C8  UNK     1      43.721  22.979  10.837  1.00  0.00     0.078 A 
ATOM      5  C9  UNK     1      45.965  22.803  11.720  1.00  0.00     0.134 A 
ATOM      6  C10 UNK     1      43.443  23.996  11.752  1.00  0.00     0.096 A 
ATOM      7  C11 UNK     1      44.427  24.412  12.647  1.00  0.00     0.084 A 
ATOM      8  C12 UNK     1      45.691  23.819  12.636  1.00  0.00     0.118 A 
ATOM      9  C13 UNK     1      44.108  25.487  13.600  1.00  0.00     0.190 A 
ATOM     10  C14 UNK     1      41.881  25.550  12.621  1.00  0.00     0.090 A 
ATOM     11  C15 UNK     1      42.741  26.041  13.526  1.00  0.00     0.094 A 
ENDROOT
BRANCH   3  12
ATOM     12  O2  UNK     1      45.242  21.390   9.924  1.00  0.00    -0.315 OA
BRANCH  12  13
ATOM     13  C4  UNK     1      44.673  20.111  10.203  1.00  0.00     0.299 C 
ATOM     14  O1  UNK     1      43.297  20.260  10.543  1.00  0.00    -0.340 OA
ATOM     15  C5  UNK     1      42.667  19.012  10.811  1.00  0.00     0.253 C 
ATOM     16  C3  UNK     1      43.303  18.325  12.014  1.00  0.00     0.189 C 
ATOM     17  C1  UNK     1      44.812  18.179  11.821  1.00  0.00     0.183 C 
ATOM     18  C2  UNK     1      45.446  19.495  11.370  1.00  0.00     0.205 C 
BRANCH  15  19
ATOM     19  C6  UNK     1      41.253  19.396  11.100  1.00  0.00     0.172 C 
ATOM     20  O7  UNK     1      40.622  19.059  12.091  1.00  0.00    -0.648 OA
BRANCH  19  21
ATOM     21  O6  UNK     1      40.755  20.171  10.106  1.00  0.00    -0.774 OA
ATOM     22  H10 UNK     1      41.009  19.838   9.219  1.00  0.00     0.167 HD
ENDBRANCH  19  21
ENDBRANCH  15  19
BRANCH  16  23
ATOM     23  O5  UNK     1      42.724  17.029  12.160  1.00  0.00    -0.390 OA
ATOM     24  H8  UNK     1      41.874  17.129  12.621  1.00  0.00     0.210 HD
ENDBRANCH  16  23
BRANCH  17  25
ATOM     25  O3  UNK     1      45.381  17.778  13.068  1.00  0.00    -0.390 OA
ATOM     26  H6  UNK     1      46.239  17.362  12.882  1.00  0.00     0.210 HD
ENDBRANCH  17  25
BRANCH  18  27
ATOM     27  O4  UNK     1      46.786  19.252  10.940  1.00  0.00    -0.388 OA
ATOM     28  H7  UNK     1      47.180  18.609  11.553  1.00  0.00     0.210 HD
ENDBRANCH  18  27
ENDBRANCH  12  13
ENDBRANCH   3  12
BRANCH   5  29
ATOM     29  O9  UNK     1      47.196  22.215  11.700  1.00  0.00    -0.356 OA
ATOM     30  H12 UNK     1      47.448  21.995  12.614  1.00  0.00     0.218 HD
ENDBRANCH   5  29
BRANCH   8  31
ATOM     31  O10 UNK     1      46.676  24.201  13.497  1.00  0.00    -0.357 OA
ATOM     32  H13 UNK     1      47.060  23.431  13.944  1.00  0.00     0.217 HD
ENDBRANCH   8  31
BRANCH  10  33
ATOM     33  C16 UNK     1      40.504  26.071  12.495  1.00  0.00    -0.002 A 
ATOM     34  C17 UNK     1      40.285  27.442  12.334  1.00  0.00     0.014 A 
ATOM     35  C19 UNK     1      38.985  27.933  12.214  1.00  0.00     0.001 A 
ATOM     36  C21 UNK     1      37.901  27.057  12.253  1.00  0.00     0.000 A 
ATOM     37  C20 UNK     1      38.116  25.688  12.414  1.00  0.00     0.001 A 
ATOM     38  C18 UNK     1      39.416  25.197  12.534  1.00  0.00     0.014 A 
ENDBRANCH  10  33
TORSDOF 10
ENDMDL
MODEL 10
REMARK VINA RESULT:      -5.9      3.412      7.507
REMARK  10 active torsions:
REMARK  status: ('A' for Active; 'I' for Inactive)
REMARK    1  A    between atoms: O2_2  and  C4_15 
REMARK    2  A    between atoms: O2_2  and  C7_18 
REMARK    3  A    between atoms: O3_3  and  C1_12 
REMARK    4  A    between atoms: O4_4  and  C2_13 
REMARK    5  A    between atoms: O5_5  and  C3_14 
REMARK    6  A    between atoms: O6_6  and  C6_17 
REMARK    7  A    between atoms: O9_9  and  C9_20 
REMARK    8  A    between atoms: O10_10  and  C12_23 
REMARK    9  A    between atoms: C5_16  and  C6_17 
REMARK   10  A    between atoms: C14_25  and  C16_27 
ROOT
ATOM      1  O8  UNK     1      42.003  18.463  13.780  1.00  0.00    -0.309 OA
ATOM      2  O11 UNK     1      38.071  18.832  14.782  1.00  0.00    -0.287 OA
ATOM      3  C7  UNK     1      41.177  21.378  11.755  1.00  0.00     0.110 A 
ATOM      4  C8  UNK     1      41.891  20.333  12.343  1.00  0.00     0.078 A 
ATOM      5  C9  UNK     1      39.827  21.560  12.056  1.00  0.00     0.134 A 
ATOM      6  C10 UNK     1      41.251  19.471  13.235  1.00  0.00     0.096 A 
ATOM      7  C11 UNK     1      39.902  19.656  13.534  1.00  0.00     0.084 A 
ATOM      8  C12 UNK     1      39.184  20.700  12.947  1.00  0.00     0.118 A 
ATOM      9  C13 UNK     1      39.252  18.731  14.476  1.00  0.00     0.190 A 
ATOM     10  C14 UNK     1      41.396  17.596  14.675  1.00  0.00     0.090 A 
ATOM     11  C15 UNK     1      40.106  17.666  15.039  1.00  0.00     0.094 A 
ENDROOT
BRANCH   3  12
ATOM     12  O2  UNK     1      41.812  22.215  10.885  1.00  0.00    -0.315 OA
BRANCH  12  13
ATOM     13  C4  UNK     1      42.379  23.403  11.439  1.00  0.00     0.299 C 
ATOM     14  O1  UNK     1      41.338  24.281  11.859  1.00  0.00    -0.340 OA
ATOM     15  C5  UNK     1      41.843  25.477  12.443  1.00  0.00     0.253 C 
ATOM     16  C3  UNK     1      42.657  26.278  11.434  1.00  0.00     0.189 C 
ATOM     17  C1  UNK     1      43.768  25.419  10.830  1.00  0.00     0.183 C 
ATOM     18  C2  UNK     1      43.233  24.066  10.359  1.00  0.00     0.205 C 
BRANCH  15  19
ATOM     19  C6  UNK     1      40.605  26.215  12.838  1.00  0.00     0.172 C 
ATOM     20  O7  UNK     1      40.584  27.296  13.408  1.00  0.00    -0.648 OA
BRANCH  19  21
ATOM     21  O6  UNK     1      39.498  25.520  12.479  1.00  0.00    -0.774 OA
ATOM     22  H10 UNK     1      38.679  26.046  12.601  1.00  0.00     0.167 HD
ENDBRANCH  19  21
ENDBRANCH  15  19
BRANCH  16  23
ATOM     23  O5  UNK     1      43.242  27.395  12.101  1.00  0.00    -0.390 OA
ATOM     24  H8  UNK     1      44.054  27.639  11.625  1.00  0.00     0.210 HD
ENDBRANCH  16  23
BRANCH  17  25
ATOM     25  O3  UNK     1      44.319  26.127   9.718  1.00  0.00    -0.390 OA
ATOM     26  H6  UNK     1      43.586  26.558   9.249  1.00  0.00     0.210 HD
ENDBRANCH  17  25
BRANCH  18  27
ATOM     27  O4  UNK     1      44.329  23.201  10.060  1.00  0.00    -0.388 OA
ATOM     28  H7  UNK     1      44.333  23.052   9.100  1.00  0.00     0.210 HD
ENDBRANCH  18  27
ENDBRANCH  12  13
ENDBRANCH   3  12
BRANCH   5  29
ATOM     29  O9  UNK     1      39.136  22.585  11.476  1.00  0.00    -0.356 OA
ATOM     30  H12 UNK     1      38.953  23.256  12.156  1.00  0.00     0.218 HD
ENDBRANCH   5  29
BRANCH   8  31
ATOM     31  O10 UNK     1      37.865  20.911  13.216  1.00  0.00    -0.357 OA
ATOM     32  H13 UNK     1      37.353  20.983  12.396  1.00  0.00     0.217 HD
ENDBRANCH   8  31
BRANCH  10  33
ATOM     33  C16 UNK     1      42.295  16.546  15.198  1.00  0.00    -0.002 A 
ATOM     34  C17 UNK     1      43.657  16.809  15.364  1.00  0.00     0.014 A 
ATOM     35  C19 UNK     1      44.506  15.818  15.859  1.00  0.00     0.001 A 
ATOM     36  C21 UNK     1      43.995  14.563  16.191  1.00  0.00     0.000 A 
ATOM     37  C20 UNK     1      42.635  14.298  16.027  1.00  0.00     0.001 A 
ATOM     38  C18 UNK     1      41.787  15.289  15.532  1.00  0.00     0.014 A 
ENDBRANCH  10  33
TORSDOF 10
ENDMDL
MODEL 11
REMARK VINA RESULT:      -5.9      3.355      4.930
REMARK  10 active torsions:
REMARK  status: ('A' for Active; 'I' for Inactive)
REMARK    1  A    between atoms: O2_2  and  C4_15 
REMARK    2  A    between atoms: O2_2  and  C7_18 
REMARK    3  A    between atoms: O3_3  and  C1_12 
REMARK    4  A    between atoms: O4_4  and  C2_13 
REMARK    5  A    between atoms: O5_5  and  C3_14 
REMARK    6  A    between atoms: O6_6  and  C6_17 
REMARK    7  A    between atoms: O9_9  and  C9_20 
REMARK    8  A    between atoms: O10_10  and  C12_23 
REMARK    9  A    between atoms: C5_16  and  C6_17 
REMARK   10  A    between atoms: C14_25  and  C16_27 
ROOT
ATOM      1  O8  UNK     1      43.140  21.751  11.582  1.00  0.00    -0.309 OA
ATOM      2  O11 UNK     1      39.290  20.656  12.341  1.00  0.00    -0.287 OA
ATOM      3  C7  UNK     1      43.651  18.171  12.034  1.00  0.00     0.110 A 
ATOM      4  C8  UNK     1      43.895  19.524  11.796  1.00  0.00     0.078 A 
ATOM      5  C9  UNK     1      42.354  17.730  12.299  1.00  0.00     0.134 A 
ATOM      6  C10 UNK     1      42.838  20.435  11.823  1.00  0.00     0.096 A 
ATOM      7  C11 UNK     1      41.544  19.992  12.088  1.00  0.00     0.084 A 
ATOM      8  C12 UNK     1      41.295  18.638  12.327  1.00  0.00     0.118 A 
ATOM      9  C13 UNK     1      40.449  20.974  12.113  1.00  0.00     0.190 A 
ATOM     10  C14 UNK     1      42.109  22.678  11.595  1.00  0.00     0.090 A 
ATOM     11  C15 UNK     1      40.825  22.377  11.843  1.00  0.00     0.094 A 
ENDROOT
BRANCH   3  12
ATOM     12  O2  UNK     1      44.690  17.289  12.005  1.00  0.00    -0.315 OA
BRANCH  12  13
ATOM     13  C4  UNK     1      46.001  17.840  12.139  1.00  0.00     0.299 C 
ATOM     14  O1  UNK     1      46.746  17.604  10.947  1.00  0.00    -0.340 OA
ATOM     15  C5  UNK     1      48.058  18.152  11.012  1.00  0.00     0.253 C 
ATOM     16  C3  UNK     1      48.870  17.499  12.125  1.00  0.00     0.189 C 
ATOM     17  C1  UNK     1      48.136  17.601  13.462  1.00  0.00     0.183 C 
ATOM     18  C2  UNK     1      46.677  17.164  13.332  1.00  0.00     0.205 C 
BRANCH  15  19
ATOM     19  C6  UNK     1      48.632  17.829   9.671  1.00  0.00     0.172 C 
ATOM     20  O7  UNK     1      48.625  18.578   8.705  1.00  0.00    -0.648 OA
BRANCH  19  21
ATOM     21  O6  UNK     1      49.165  16.583   9.666  1.00  0.00    -0.774 OA
ATOM     22  H10 UNK     1      49.985  16.536   9.131  1.00  0.00     0.167 HD
ENDBRANCH  19  21
ENDBRANCH  15  19
BRANCH  16  23
ATOM     23  O5  UNK     1      50.125  18.170  12.229  1.00  0.00    -0.390 OA
ATOM     24  H8  UNK     1      50.757  17.720  11.643  1.00  0.00     0.210 HD
ENDBRANCH  16  23
BRANCH  17  25
ATOM     25  O3  UNK     1      48.805  16.756  14.399  1.00  0.00    -0.390 OA
ATOM     26  H6  UNK     1      48.127  16.286  14.911  1.00  0.00     0.210 HD
ENDBRANCH  17  25
BRANCH  18  27
ATOM     27  O4  UNK     1      45.966  17.529  14.516  1.00  0.00    -0.388 OA
ATOM     28  H7  UNK     1      45.209  18.075  14.247  1.00  0.00     0.210 HD
ENDBRANCH  18  27
ENDBRANCH  12  13
ENDBRANCH   3  12
BRANCH   5  29
ATOM     29  O9  UNK     1      42.123  16.405  12.532  1.00  0.00    -0.356 OA
ATOM     30  H12 UNK     1      42.727  15.885  11.973  1.00  0.00     0.218 HD
ENDBRANCH   5  29
BRANCH   8  31
ATOM     31  O10 UNK     1      40.043  18.169  12.590  1.00  0.00    -0.357 OA
ATOM     32  H13 UNK     1      39.554  18.789  13.152  1.00  0.00     0.217 HD
ENDBRANCH   8  31
BRANCH  10  33
ATOM     33  C16 UNK     1      42.545  24.064  11.328  1.00  0.00    -0.002 A 
ATOM     34  C17 UNK     1      43.345  24.346  10.218  1.00  0.00     0.014 A 
ATOM     35  C19 UNK     1      43.755  25.656   9.966  1.00  0.00     0.001 A 
ATOM     36  C21 UNK     1      43.367  26.686  10.821  1.00  0.00     0.000 A 
ATOM     37  C20 UNK     1      42.569  26.408  11.931  1.00  0.00     0.001 A 
ATOM     38  C18 UNK     1      42.158  25.098  12.183  1.00  0.00     0.014 A 
ENDBRANCH  10  33
TORSDOF 10
ENDMDL
MODEL 12
REMARK VINA RESULT:      -5.9      3.317      8.548
REMARK  10 active torsions:
REMARK  status: ('A' for Active; 'I' for Inactive)
REMARK    1  A    between atoms: O2_2  and  C4_15 
REMARK    2  A    between atoms: O2_2  and  C7_18 
REMARK    3  A    between atoms: O3_3  and  C1_12 
REMARK    4  A    between atoms: O4_4  and  C2_13 
REMARK    5  A    between atoms: O5_5  and  C3_14 
REMARK    6  A    between atoms: O6_6  and  C6_17 
REMARK    7  A    between atoms: O9_9  and  C9_20 
REMARK    8  A    between atoms: O10_10  and  C12_23 
REMARK    9  A    between atoms: C5_16  and  C6_17 
REMARK   10  A    between atoms: C14_25  and  C16_27 
ROOT
ATOM      1  O8  UNK     1      44.893  19.381  11.142  1.00  0.00    -0.309 OA
ATOM      2  O11 UNK     1      42.222  16.713  12.676  1.00  0.00    -0.287 OA
ATOM      3  C7  UNK     1      41.898  21.454  11.030  1.00  0.00     0.110 A 
ATOM      4  C8  UNK     1      43.221  21.031  10.901  1.00  0.00     0.078 A 
ATOM      5  C9  UNK     1      40.933  20.589  11.550  1.00  0.00     0.134 A 
ATOM      6  C10 UNK     1      43.578  19.740  11.293  1.00  0.00     0.096 A 
ATOM      7  C11 UNK     1      42.613  18.878  11.811  1.00  0.00     0.084 A 
ATOM      8  C12 UNK     1      41.287  19.298  11.942  1.00  0.00     0.118 A 
ATOM      9  C13 UNK     1      43.016  17.523  12.215  1.00  0.00     0.190 A 
ATOM     10  C14 UNK     1      45.278  18.107  11.530  1.00  0.00     0.090 A 
ATOM     11  C15 UNK     1      44.443  17.186  12.036  1.00  0.00     0.094 A 
ENDROOT
BRANCH   3  12
ATOM     12  O2  UNK     1      41.559  22.717  10.644  1.00  0.00    -0.315 OA
BRANCH  12  13
ATOM     13  C4  UNK     1      42.101  23.789  11.417  1.00  0.00     0.299 C 
ATOM     14  O1  UNK     1      41.061  24.422  12.158  1.00  0.00    -0.340 OA
ATOM     15  C5  UNK     1      41.545  25.487  12.968  1.00  0.00     0.253 C 
ATOM     16  C3  UNK     1      42.153  26.592  12.113  1.00  0.00     0.189 C 
ATOM     17  C1  UNK     1      43.237  26.031  11.193  1.00  0.00     0.183 C 
ATOM     18  C2  UNK     1      42.750  24.784  10.454  1.00  0.00     0.205 C 
BRANCH  15  19
ATOM     19  C6  UNK     1      40.317  25.969  13.671  1.00  0.00     0.172 C 
ATOM     20  O7  UNK     1      40.304  26.782  14.583  1.00  0.00    -0.648 OA
BRANCH  19  21
ATOM     21  O6  UNK     1      39.210  25.376  13.161  1.00  0.00    -0.774 OA
ATOM     22  H10 UNK     1      38.483  25.330  13.818  1.00  0.00     0.167 HD
ENDBRANCH  19  21
ENDBRANCH  15  19
BRANCH  16  23
ATOM     23  O5  UNK     1      42.734  27.570  12.975  1.00  0.00    -0.390 OA
ATOM     24  H8  UNK     1      43.328  28.126  12.443  1.00  0.00     0.210 HD
ENDBRANCH  16  23
BRANCH  17  25
ATOM     25  O3  UNK     1      43.579  27.043  10.244  1.00  0.00    -0.390 OA
ATOM     26  H6  UNK     1      44.075  26.619   9.525  1.00  0.00     0.210 HD
ENDBRANCH  17  25
BRANCH  18  27
ATOM     27  O4  UNK     1      43.860  24.141   9.827  1.00  0.00    -0.388 OA
ATOM     28  H7  UNK     1      44.621  24.218  10.425  1.00  0.00     0.210 HD
ENDBRANCH  18  27
ENDBRANCH  12  13
ENDBRANCH   3  12
BRANCH   5  29
ATOM     29  O9  UNK     1      39.641  21.011  11.672  1.00  0.00    -0.356 OA
ATOM     30  H12 UNK     1      39.162  20.375  12.232  1.00  0.00     0.218 HD
ENDBRANCH   5  29
BRANCH   8  31
ATOM     31  O10 UNK     1      40.317  18.483  12.445  1.00  0.00    -0.357 OA
ATOM     32  H13 UNK     1      40.706  17.782  12.990  1.00  0.00     0.217 HD
ENDBRANCH   8  31
BRANCH  10  33
ATOM     33  C16 UNK     1      46.713  17.824  11.320  1.00  0.00    -0.002 A 
ATOM     34  C17 UNK     1      47.201  16.523  11.476  1.00  0.00     0.014 A 
ATOM     35  C19 UNK     1      48.556  16.256  11.276  1.00  0.00     0.001 A 
ATOM     36  C21 UNK     1      49.426  17.286  10.920  1.00  0.00     0.000 A 
ATOM     37  C20 UNK     1      48.941  18.586  10.764  1.00  0.00     0.001 A 
ATOM     38  C18 UNK     1      47.587  18.853  10.964  1.00  0.00     0.014 A 
ENDBRANCH  10  33
TORSDOF 10
ENDMDL
MODEL 13
REMARK VINA RESULT:      -5.9      3.100      8.989
REMARK  10 active torsions:
REMARK  status: ('A' for Active; 'I' for Inactive)
REMARK    1  A    between atoms: O2_2  and  C4_15 
REMARK    2  A    between atoms: O2_2  and  C7_18 
REMARK    3  A    between atoms: O3_3  and  C1_12 
REMARK    4  A    between atoms: O4_4  and  C2_13 
REMARK    5  A    between atoms: O5_5  and  C3_14 
REMARK    6  A    between atoms: O6_6  and  C6_17 
REMARK    7  A    between atoms: O9_9  and  C9_20 
REMARK    8  A    between atoms: O10_10  and  C12_23 
REMARK    9  A    between atoms: C5_16  and  C6_17 
REMARK   10  A    between atoms: C14_25  and  C16_27 
ROOT
ATOM      1  O8  UNK     1      41.511  22.870  12.128  1.00  0.00    -0.309 OA
ATOM      2  O11 UNK     1      44.434  25.427  10.896  1.00  0.00    -0.287 OA
ATOM      3  C7  UNK     1      39.828  26.026  12.824  1.00  0.00     0.110 A 
ATOM      4  C8  UNK     1      40.088  24.660  12.719  1.00  0.00     0.078 A 
ATOM      5  C9  UNK     1      40.787  26.956  12.418  1.00  0.00     0.134 A 
ATOM      6  C10 UNK     1      41.312  24.224  12.206  1.00  0.00     0.096 A 
ATOM      7  C11 UNK     1      42.267  25.155  11.802  1.00  0.00     0.084 A 
ATOM      8  C12 UNK     1      42.010  26.523  11.906  1.00  0.00     0.118 A 
ATOM      9  C13 UNK     1      43.548  24.668  11.267  1.00  0.00     0.190 A 
ATOM     10  C14 UNK     1      42.713  22.408  11.616  1.00  0.00     0.090 A 
ATOM     11  C15 UNK     1      43.712  23.202  11.199  1.00  0.00     0.094 A 
ENDROOT
BRANCH   3  12
ATOM     12  O2  UNK     1      38.630  26.442  13.326  1.00  0.00    -0.315 OA
BRANCH  12  13
ATOM     13  C4  UNK     1      37.461  25.833  12.776  1.00  0.00     0.299 C 
ATOM     14  O1  UNK     1      37.794  24.561  12.226  1.00  0.00    -0.340 OA
ATOM     15  C5  UNK     1      36.661  23.893  11.681  1.00  0.00     0.253 C 
ATOM     16  C3  UNK     1      36.065  24.684  10.522  1.00  0.00     0.189 C 
ATOM     17  C1  UNK     1      35.738  26.114  10.953  1.00  0.00     0.183 C 
ATOM     18  C2  UNK     1      36.915  26.758  11.687  1.00  0.00     0.205 C 
BRANCH  15  19
ATOM     19  C6  UNK     1      37.224  22.593  11.207  1.00  0.00     0.172 C 
ATOM     20  O7  UNK     1      37.297  22.244  10.038  1.00  0.00    -0.648 OA
BRANCH  19  21
ATOM     21  O6  UNK     1      37.644  21.843  12.255  1.00  0.00    -0.774 OA
ATOM     22  H10 UNK     1      37.121  21.018  12.348  1.00  0.00     0.167 HD
ENDBRANCH  19  21
ENDBRANCH  15  19
BRANCH  16  23
ATOM     23  O5  UNK     1      34.865  24.040  10.099  1.00  0.00    -0.390 OA
ATOM     24  H8  UNK     1      34.271  24.718   9.732  1.00  0.00     0.210 HD
ENDBRANCH  16  23
BRANCH  17  25
ATOM     25  O3  UNK     1      35.436  26.872   9.781  1.00  0.00    -0.390 OA
ATOM     26  H6  UNK     1      35.287  27.792  10.053  1.00  0.00     0.210 HD
ENDBRANCH  17  25
BRANCH  18  27
ATOM     27  O4  UNK     1      36.482  27.970  12.305  1.00  0.00    -0.388 OA
ATOM     28  H7  UNK     1      35.582  28.155  11.991  1.00  0.00     0.210 HD
ENDBRANCH  18  27
ENDBRANCH  12  13
ENDBRANCH   3  12
BRANCH   5  29
ATOM     29  O9  UNK     1      40.524  28.291  12.525  1.00  0.00    -0.356 OA
ATOM     30  H12 UNK     1      40.637  28.698  11.648  1.00  0.00     0.218 HD
ENDBRANCH   5  29
BRANCH   8  31
ATOM     31  O10 UNK     1      42.921  27.461  11.520  1.00  0.00    -0.357 OA
ATOM     32  H13 UNK     1      42.510  28.125  10.946  1.00  0.00     0.217 HD
ENDBRANCH   8  31
BRANCH  10  33
ATOM     33  C16 UNK     1      42.824  20.935  11.580  1.00  0.00    -0.002 A 
ATOM     34  C17 UNK     1      41.673  20.147  11.501  1.00  0.00     0.014 A 
ATOM     35  C19 UNK     1      41.779  18.756  11.466  1.00  0.00     0.001 A 
ATOM     36  C21 UNK     1      43.034  18.149  11.510  1.00  0.00     0.000 A 
ATOM     37  C20 UNK     1      44.185  18.934  11.589  1.00  0.00     0.001 A 
ATOM     38  C18 UNK     1      44.080  20.324  11.623  1.00  0.00     0.014 A 
ENDBRANCH  10  33
TORSDOF 10
ENDMDL
MODEL 14
REMARK VINA RESULT:      -5.8      3.999      9.840
REMARK  10 active torsions:
REMARK  status: ('A' for Active; 'I' for Inactive)
REMARK    1  A    between atoms: O2_2  and  C4_15 
REMARK    2  A    between atoms: O2_2  and  C7_18 
REMARK    3  A    between atoms: O3_3  and  C1_12 
REMARK    4  A    between atoms: O4_4  and  C2_13 
REMARK    5  A    between atoms: O5_5  and  C3_14 
REMARK    6  A    between atoms: O6_6  and  C6_17 
REMARK    7  A    between atoms: O9_9  and  C9_20 
REMARK    8  A    between atoms: O10_10  and  C12_23 
REMARK    9  A    between atoms: C5_16  and  C6_17 
REMARK   10  A    between atoms: C14_25  and  C16_27 
ROOT
ATOM      1  O8  UNK     1      41.499  23.444  11.792  1.00  0.00    -0.309 OA
ATOM      2  O11 UNK     1      43.438  27.022  11.994  1.00  0.00    -0.287 OA
ATOM      3  C7  UNK     1      38.753  25.504  13.015  1.00  0.00     0.110 A 
ATOM      4  C8  UNK     1      39.488  24.404  12.572  1.00  0.00     0.078 A 
ATOM      5  C9  UNK     1      39.358  26.759  13.106  1.00  0.00     0.134 A 
ATOM      6  C10 UNK     1      40.829  24.561  12.219  1.00  0.00     0.096 A 
ATOM      7  C11 UNK     1      41.430  25.815  12.312  1.00  0.00     0.084 A 
ATOM      8  C12 UNK     1      40.698  26.920  12.754  1.00  0.00     0.118 A 
ATOM      9  C13 UNK     1      42.846  25.952  11.935  1.00  0.00     0.190 A 
ATOM     10  C14 UNK     1      42.831  23.572  11.429  1.00  0.00     0.090 A 
ATOM     11  C15 UNK     1      43.522  24.722  11.478  1.00  0.00     0.094 A 
ENDROOT
BRANCH   3  12
ATOM     12  O2  UNK     1      37.443  25.340  13.357  1.00  0.00    -0.315 OA
BRANCH  12  13
ATOM     13  C4  UNK     1      36.475  25.883  12.458  1.00  0.00     0.299 C 
ATOM     14  O1  UNK     1      35.778  26.953  13.091  1.00  0.00    -0.340 OA
ATOM     15  C5  UNK     1      34.812  27.552  12.234  1.00  0.00     0.253 C 
ATOM     16  C3  UNK     1      33.732  26.550  11.843  1.00  0.00     0.189 C 
ATOM     17  C1  UNK     1      34.353  25.298  11.224  1.00  0.00     0.183 C 
ATOM     18  C2  UNK     1      35.503  24.765  12.080  1.00  0.00     0.205 C 
BRANCH  15  19
ATOM     19  C6  UNK     1      34.244  28.651  13.072  1.00  0.00     0.172 C 
ATOM     20  O7  UNK     1      34.498  28.836  14.253  1.00  0.00    -0.648 OA
BRANCH  19  21
ATOM     21  O6  UNK     1      33.400  29.421  12.343  1.00  0.00    -0.774 OA
ATOM     22  H10 UNK     1      32.461  29.184  12.499  1.00  0.00     0.167 HD
ENDBRANCH  19  21
ENDBRANCH  15  19
BRANCH  16  23
ATOM     23  O5  UNK     1      32.866  27.161  10.888  1.00  0.00    -0.390 OA
ATOM     24  H8  UNK     1      32.895  28.123  11.027  1.00  0.00     0.210 HD
ENDBRANCH  16  23
BRANCH  17  25
ATOM     25  O3  UNK     1      33.334  24.302  11.124  1.00  0.00    -0.390 OA
ATOM     26  H6  UNK     1      33.516  23.772  10.330  1.00  0.00     0.210 HD
ENDBRANCH  17  25
BRANCH  18  27
ATOM     27  O4  UNK     1      36.224  23.776  11.343  1.00  0.00    -0.388 OA
ATOM     28  H7  UNK     1      36.161  22.940  11.833  1.00  0.00     0.210 HD
ENDBRANCH  18  27
ENDBRANCH  12  13
ENDBRANCH   3  12
BRANCH   5  29
ATOM     29  O9  UNK     1      38.632  27.831  13.540  1.00  0.00    -0.356 OA
ATOM     30  H12 UNK     1      37.826  27.896  12.999  1.00  0.00     0.218 HD
ENDBRANCH   5  29
BRANCH   8  31
ATOM     31  O10 UNK     1      41.253  28.161  12.856  1.00  0.00    -0.357 OA
ATOM     32  H13 UNK     1      40.809  28.786  12.263  1.00  0.00     0.217 HD
ENDBRANCH   8  31
BRANCH  10  33
ATOM     33  C16 UNK     1      43.457  22.308  10.989  1.00  0.00    -0.002 A 
ATOM     34  C17 UNK     1      44.759  22.309  10.482  1.00  0.00     0.014 A 
ATOM     35  C19 UNK     1      45.350  21.115  10.067  1.00  0.00     0.001 A 
ATOM     36  C21 UNK     1      44.643  19.917  10.159  1.00  0.00     0.000 A 
ATOM     37  C20 UNK     1      43.342  19.912  10.665  1.00  0.00     0.001 A 
ATOM     38  C18 UNK     1      42.751  21.106  11.079  1.00  0.00     0.014 A 
ENDBRANCH  10  33
TORSDOF 10
ENDMDL
MODEL 15
REMARK VINA RESULT:      -5.8      2.985      5.278
REMARK  10 active torsions:
REMARK  status: ('A' for Active; 'I' for Inactive)
REMARK    1  A    between atoms: O2_2  and  C4_15 
REMARK    2  A    between atoms: O2_2  and  C7_18 
REMARK    3  A    between atoms: O3_3  and  C1_12 
REMARK    4  A    between atoms: O4_4  and  C2_13 
REMARK    5  A    between atoms: O5_5  and  C3_14 
REMARK    6  A    between atoms: O6_6  and  C6_17 
REMARK    7  A    between atoms: O9_9  and  C9_20 
REMARK    8  A    between atoms: O10_10  and  C12_23 
REMARK    9  A    between atoms: C5_16  and  C6_17 
REMARK   10  A    between atoms: C14_25  and  C16_27 
ROOT
ATOM      1  O8  UNK     1      40.325  24.721  12.302  1.00  0.00    -0.309 OA
ATOM      2  O11 UNK     1      43.907  26.486  11.492  1.00  0.00    -0.287 OA
ATOM      3  C7  UNK     1      42.155  21.783  11.162  1.00  0.00     0.110 A 
ATOM      4  C8  UNK     1      41.134  22.603  11.643  1.00  0.00     0.078 A 
ATOM      5  C9  UNK     1      43.407  22.325  10.866  1.00  0.00     0.134 A 
ATOM      6  C10 UNK     1      41.367  23.966  11.828  1.00  0.00     0.096 A 
ATOM      7  C11 UNK     1      42.618  24.505  11.532  1.00  0.00     0.084 A 
ATOM      8  C12 UNK     1      43.643  23.688  11.050  1.00  0.00     0.118 A 
ATOM      9  C13 UNK     1      42.835  25.945  11.734  1.00  0.00     0.190 A 
ATOM     10  C14 UNK     1      40.530  26.078  12.503  1.00  0.00     0.090 A 
ATOM     11  C15 UNK     1      41.684  26.713  12.250  1.00  0.00     0.094 A 
ENDROOT
BRANCH   3  12
ATOM     12  O2  UNK     1      41.917  20.452  10.985  1.00  0.00    -0.315 OA
BRANCH  12  13
ATOM     13  C4  UNK     1      42.104  19.612  12.125  1.00  0.00     0.299 C 
ATOM     14  O1  UNK     1      43.397  19.013  12.075  1.00  0.00    -0.340 OA
ATOM     15  C5  UNK     1      43.651  18.180  13.200  1.00  0.00     0.253 C 
ATOM     16  C3  UNK     1      42.673  17.012  13.248  1.00  0.00     0.189 C 
ATOM     17  C1  UNK     1      41.229  17.513  13.218  1.00  0.00     0.183 C 
ATOM     18  C2  UNK     1      41.017  18.537  12.102  1.00  0.00     0.205 C 
BRANCH  15  19
ATOM     19  C6  UNK     1      45.046  17.699  12.963  1.00  0.00     0.172 C 
ATOM     20  O7  UNK     1      45.601  17.665  11.875  1.00  0.00    -0.648 OA
BRANCH  19  21
ATOM     21  O6  UNK     1      45.618  17.300  14.125  1.00  0.00    -0.774 OA
ATOM     22  H10 UNK     1      45.336  16.396  14.381  1.00  0.00     0.167 HD
ENDBRANCH  19  21
ENDBRANCH  15  19
BRANCH  16  23
ATOM     23  O5  UNK     1      42.888  16.285  14.457  1.00  0.00    -0.390 OA
ATOM     24  H8  UNK     1      42.044  16.241  14.937  1.00  0.00     0.210 HD
ENDBRANCH  16  23
BRANCH  17  25
ATOM     25  O3  UNK     1      40.375  16.388  13.000  1.00  0.00    -0.390 OA
ATOM     26  H6  UNK     1      40.917  15.674  12.627  1.00  0.00     0.210 HD
ENDBRANCH  17  25
BRANCH  18  27
ATOM     27  O4  UNK     1      39.752  19.175  12.278  1.00  0.00    -0.388 OA
ATOM     28  H7  UNK     1      39.197  18.585  12.814  1.00  0.00     0.210 HD
ENDBRANCH  18  27
ENDBRANCH  12  13
ENDBRANCH   3  12
BRANCH   5  29
ATOM     29  O9  UNK     1      44.401  21.517  10.396  1.00  0.00    -0.356 OA
ATOM     30  H12 UNK     1      44.417  21.581   9.425  1.00  0.00     0.218 HD
ENDBRANCH   5  29
BRANCH   8  31
ATOM     31  O10 UNK     1      44.879  24.180  10.750  1.00  0.00    -0.357 OA
ATOM     32  H13 UNK     1      45.570  23.668  11.197  1.00  0.00     0.217 HD
ENDBRANCH   8  31
BRANCH  10  33
ATOM     33  C16 UNK     1      39.342  26.795  13.011  1.00  0.00    -0.002 A 
ATOM     34  C17 UNK     1      38.821  26.485  14.270  1.00  0.00     0.014 A 
ATOM     35  C19 UNK     1      37.701  27.164  14.750  1.00  0.00     0.001 A 
ATOM     36  C21 UNK     1      37.098  28.154  13.974  1.00  0.00     0.000 A 
ATOM     37  C20 UNK     1      37.616  28.466  12.716  1.00  0.00     0.001 A 
ATOM     38  C18 UNK     1      38.737  27.787  12.237  1.00  0.00     0.014 A 
ENDBRANCH  10  33
TORSDOF 10
ENDMDL
MODEL 16
REMARK VINA RESULT:      -5.8      1.397      2.840
REMARK  10 active torsions:
REMARK  status: ('A' for Active; 'I' for Inactive)
REMARK    1  A    between atoms: O2_2  and  C4_15 
REMARK    2  A    between atoms: O2_2  and  C7_18 
REMARK    3  A    between atoms: O3_3  and  C1_12 
REMARK    4  A    between atoms: O4_4  and  C2_13 
REMARK    5  A    between atoms: O5_5  and  C3_14 
REMARK    6  A    between atoms: O6_6  and  C6_17 
REMARK    7  A    between atoms: O9_9  and  C9_20 
REMARK    8  A    between atoms: O10_10  and  C12_23 
REMARK    9  A    between atoms: C5_16  and  C6_17 
REMARK   10  A    between atoms: C14_25  and  C16_27 
ROOT
ATOM      1  O8  UNK     1      38.824  23.392  11.700  1.00  0.00    -0.309 OA
ATOM      2  O11 UNK     1      37.167  19.962  13.146  1.00  0.00    -0.287 OA
ATOM      3  C7  UNK     1      41.880  21.634  12.619  1.00  0.00     0.110 A 
ATOM      4  C8  UNK     1      41.008  22.614  12.145  1.00  0.00     0.078 A 
ATOM      5  C9  UNK     1      41.378  20.435  13.126  1.00  0.00     0.134 A 
ATOM      6  C10 UNK     1      39.631  22.392  12.179  1.00  0.00     0.096 A 
ATOM      7  C11 UNK     1      39.131  21.194  12.687  1.00  0.00     0.084 A 
ATOM      8  C12 UNK     1      40.001  20.210  13.162  1.00  0.00     0.118 A 
ATOM      9  C13 UNK     1      37.675  20.988  12.712  1.00  0.00     0.190 A 
ATOM     10  C14 UNK     1      37.451  23.197  11.715  1.00  0.00     0.090 A 
ATOM     11  C15 UNK     1      36.850  22.092  12.182  1.00  0.00     0.094 A 
ENDROOT
BRANCH   3  12
ATOM     12  O2  UNK     1      43.225  21.860  12.580  1.00  0.00    -0.315 OA
BRANCH  12  13
ATOM     13  C4  UNK     1      43.954  21.208  11.539  1.00  0.00     0.299 C 
ATOM     14  O1  UNK     1      44.506  19.989  12.030  1.00  0.00    -0.340 OA
ATOM     15  C5  UNK     1      45.227  19.280  11.028  1.00  0.00     0.253 C 
ATOM     16  C3  UNK     1      46.422  20.090  10.538  1.00  0.00     0.189 C 
ATOM     17  C1  UNK     1      45.980  21.473  10.059  1.00  0.00     0.183 C 
ATOM     18  C2  UNK     1      45.067  22.151  11.081  1.00  0.00     0.205 C 
BRANCH  15  19
ATOM     19  C6  UNK     1      45.674  18.043  11.737  1.00  0.00     0.172 C 
ATOM     20  O7  UNK     1      46.624  17.349  11.406  1.00  0.00    -0.648 OA
BRANCH  19  21
ATOM     21  O6  UNK     1      44.878  17.789  12.804  1.00  0.00    -0.774 OA
ATOM     22  H10 UNK     1      45.379  17.394  13.550  1.00  0.00     0.167 HD
ENDBRANCH  19  21
ENDBRANCH  15  19
BRANCH  16  23
ATOM     23  O5  UNK     1      47.031  19.394   9.452  1.00  0.00    -0.390 OA
ATOM     24  H8  UNK     1      46.340  18.885   8.994  1.00  0.00     0.210 HD
ENDBRANCH  16  23
BRANCH  17  25
ATOM     25  O3  UNK     1      47.150  22.268   9.864  1.00  0.00    -0.390 OA
ATOM     26  H6  UNK     1      47.308  22.334   8.908  1.00  0.00     0.210 HD
ENDBRANCH  17  25
BRANCH  18  27
ATOM     27  O4  UNK     1      44.463  23.301  10.488  1.00  0.00    -0.388 OA
ATOM     28  H7  UNK     1      43.946  23.750  11.176  1.00  0.00     0.210 HD
ENDBRANCH  18  27
ENDBRANCH  12  13
ENDBRANCH   3  12
BRANCH   5  29
ATOM     29  O9  UNK     1      42.238  19.481  13.588  1.00  0.00    -0.356 OA
ATOM     30  H12 UNK     1      42.403  19.647  14.532  1.00  0.00     0.218 HD
ENDBRANCH   5  29
BRANCH   8  31
ATOM     31  O10 UNK     1      39.548  19.027  13.664  1.00  0.00    -0.357 OA
ATOM     32  H13 UNK     1      39.269  18.434  12.950  1.00  0.00     0.217 HD
ENDBRANCH   8  31
BRANCH  10  33
ATOM     33  C16 UNK     1      36.677  24.336  11.182  1.00  0.00    -0.002 A 
ATOM     34  C17 UNK     1      37.051  25.646  11.494  1.00  0.00     0.014 A 
ATOM     35  C19 UNK     1      36.320  26.722  10.989  1.00  0.00     0.001 A 
ATOM     36  C21 UNK     1      35.215  26.493  10.171  1.00  0.00     0.000 A 
ATOM     37  C20 UNK     1      34.838  25.186   9.857  1.00  0.00     0.001 A 
ATOM     38  C18 UNK     1      35.569  24.110  10.362  1.00  0.00     0.014 A 
ENDBRANCH  10  33
TORSDOF 10
ENDMDL
MODEL 17
REMARK VINA RESULT:      -5.8      2.569      4.166
REMARK  10 active torsions:
REMARK  status: ('A' for Active; 'I' for Inactive)
REMARK    1  A    between atoms: O2_2  and  C4_15 
REMARK    2  A    between atoms: O2_2  and  C7_18 
REMARK    3  A    between atoms: O3_3  and  C1_12 
REMARK    4  A    between atoms: O4_4  and  C2_13 
REMARK    5  A    between atoms: O5_5  and  C3_14 
REMARK    6  A    between atoms: O6_6  and  C6_17 
REMARK    7  A    between atoms: O9_9  and  C9_20 
REMARK    8  A    between atoms: O10_10  and  C12_23 
REMARK    9  A    between atoms: C5_16  and  C6_17 
REMARK   10  A    between atoms: C14_25  and  C16_27 
ROOT
ATOM      1  O8  UNK     1      37.708  23.213  11.408  1.00  0.00    -0.309 OA
ATOM      2  O11 UNK     1      36.703  20.009  13.715  1.00  0.00    -0.287 OA
ATOM      3  C7  UNK     1      41.014  21.725  11.777  1.00  0.00     0.110 A 
ATOM      4  C8  UNK     1      39.985  22.587  11.398  1.00  0.00     0.078 A 
ATOM      5  C9  UNK     1      40.737  20.607  12.566  1.00  0.00     0.134 A 
ATOM      6  C10 UNK     1      38.677  22.330  11.811  1.00  0.00     0.096 A 
ATOM      7  C11 UNK     1      38.403  21.213  12.599  1.00  0.00     0.084 A 
ATOM      8  C12 UNK     1      39.430  20.347  12.980  1.00  0.00     0.118 A 
ATOM      9  C13 UNK     1      37.015  20.967  13.021  1.00  0.00     0.190 A 
ATOM     10  C14 UNK     1      36.398  22.979  11.797  1.00  0.00     0.090 A 
ATOM     11  C15 UNK     1      36.009  21.944  12.559  1.00  0.00     0.094 A 
ENDROOT
BRANCH   3  12
ATOM     12  O2  UNK     1      42.289  21.985  11.368  1.00  0.00    -0.315 OA
BRANCH  12  13
ATOM     13  C4  UNK     1      42.820  23.267  11.707  1.00  0.00     0.299 C 
ATOM     14  O1  UNK     1      41.791  24.082  12.263  1.00  0.00    -0.340 OA
ATOM     15  C5  UNK     1      42.266  25.369  12.642  1.00  0.00     0.253 C 
ATOM     16  C3  UNK     1      42.778  26.142  11.433  1.00  0.00     0.189 C 
ATOM     17  C1  UNK     1      43.838  25.336  10.683  1.00  0.00     0.183 C 
ATOM     18  C2  UNK     1      43.372  23.902  10.431  1.00  0.00     0.205 C 
BRANCH  15  19
ATOM     19  C6  UNK     1      41.056  26.024  13.223  1.00  0.00     0.172 C 
ATOM     20  O7  UNK     1      39.905  25.812  12.870  1.00  0.00    -0.648 OA
BRANCH  19  21
ATOM     21  O6  UNK     1      41.406  26.896  14.200  1.00  0.00    -0.774 OA
ATOM     22  H10 UNK     1      42.365  26.857  14.400  1.00  0.00     0.167 HD
ENDBRANCH  19  21
ENDBRANCH  15  19
BRANCH  16  23
ATOM     23  O5  UNK     1      43.357  27.366  11.884  1.00  0.00    -0.390 OA
ATOM     24  H8  UNK     1      43.522  27.927  11.107  1.00  0.00     0.210 HD
ENDBRANCH  16  23
BRANCH  17  25
ATOM     25  O3  UNK     1      44.084  25.983   9.433  1.00  0.00    -0.390 OA
ATOM     26  H6  UNK     1      43.848  25.361   8.726  1.00  0.00     0.210 HD
ENDBRANCH  17  25
BRANCH  18  27
ATOM     27  O4  UNK     1      44.477  23.116   9.982  1.00  0.00    -0.388 OA
ATOM     28  H7  UNK     1      44.178  22.194   9.923  1.00  0.00     0.210 HD
ENDBRANCH  18  27
ENDBRANCH  12  13
ENDBRANCH   3  12
BRANCH   5  29
ATOM     29  O9  UNK     1      41.749  19.768  12.932  1.00  0.00    -0.356 OA
ATOM     30  H12 UNK     1      41.559  19.427  13.823  1.00  0.00     0.218 HD
ENDBRANCH   5  29
BRANCH   8  31
ATOM     31  O10 UNK     1      39.199  19.246  13.750  1.00  0.00    -0.357 OA
ATOM     32  H13 UNK     1      38.480  19.411  14.378  1.00  0.00     0.217 HD
ENDBRANCH   8  31
BRANCH  10  33
ATOM     33  C16 UNK     1      35.438  23.992  11.313  1.00  0.00    -0.002 A 
ATOM     34  C17 UNK     1      34.155  24.061  11.863  1.00  0.00     0.014 A 
ATOM     35  C19 UNK     1      33.249  25.019  11.406  1.00  0.00     0.001 A 
ATOM     36  C21 UNK     1      33.623  25.911  10.401  1.00  0.00     0.000 A 
ATOM     37  C20 UNK     1      34.903  25.844   9.851  1.00  0.00     0.001 A 
ATOM     38  C18 UNK     1      35.809  24.886  10.307  1.00  0.00     0.014 A 
ENDBRANCH  10  33
TORSDOF 10
ENDMDL
MODEL 18
REMARK VINA RESULT:      -5.8      2.789      4.089
REMARK  10 active torsions:
REMARK  status: ('A' for Active; 'I' for Inactive)
REMARK    1  A    between atoms: O2_2  and  C4_15 
REMARK    2  A    between atoms: O2_2  and  C7_18 
REMARK    3  A    between atoms: O3_3  and  C1_12 
REMARK    4  A    between atoms: O4_4  and  C2_13 
REMARK    5  A    between atoms: O5_5  and  C3_14 
REMARK    6  A    between atoms: O6_6  and  C6_17 
REMARK    7  A    between atoms: O9_9  and  C9_20 
REMARK    8  A    between atoms: O10_10  and  C12_23 
REMARK    9  A    between atoms: C5_16  and  C6_17 
REMARK   10  A    between atoms: C14_25  and  C16_27 
ROOT
ATOM      1  O8  UNK     1      42.370  22.405  11.935  1.00  0.00    -0.309 OA
ATOM      2  O11 UNK     1      39.084  20.205  12.915  1.00  0.00    -0.287 OA
ATOM      3  C7  UNK     1      43.761  19.072  11.456  1.00  0.00     0.110 A 
ATOM      4  C8  UNK     1      43.641  20.460  11.515  1.00  0.00     0.078 A 
ATOM      5  C9  UNK     1      42.672  18.260  11.778  1.00  0.00     0.134 A 
ATOM      6  C10 UNK     1      42.428  21.036  11.896  1.00  0.00     0.096 A 
ATOM      7  C11 UNK     1      41.342  20.223  12.217  1.00  0.00     0.084 A 
ATOM      8  C12 UNK     1      41.459  18.832  12.159  1.00  0.00     0.118 A 
ATOM      9  C13 UNK     1      40.076  20.856  12.617  1.00  0.00     0.190 A 
ATOM     10  C14 UNK     1      41.175  23.005  12.303  1.00  0.00     0.090 A 
ATOM     11  C15 UNK     1      40.064  22.333  12.640  1.00  0.00     0.094 A 
ENDROOT
BRANCH   3  12
ATOM     12  O2  UNK     1      44.951  18.519  11.083  1.00  0.00    -0.315 OA
BRANCH  12  13
ATOM     13  C4  UNK     1      46.107  19.348  11.205  1.00  0.00     0.299 C 
ATOM     14  O1  UNK     1      46.487  19.836   9.920  1.00  0.00    -0.340 OA
ATOM     15  C5  UNK     1      47.625  20.689   9.980  1.00  0.00     0.253 C 
ATOM     16  C3  UNK     1      48.846  19.938  10.498  1.00  0.00     0.189 C 
ATOM     17  C1  UNK     1      48.547  19.281  11.846  1.00  0.00     0.183 C 
ATOM     18  C2  UNK     1      47.231  18.504  11.807  1.00  0.00     0.205 C 
BRANCH  15  19
ATOM     19  C6  UNK     1      47.816  21.106   8.558  1.00  0.00     0.172 C 
ATOM     20  O7  UNK     1      48.873  21.052   7.947  1.00  0.00    -0.648 OA
BRANCH  19  21
ATOM     21  O6  UNK     1      46.653  21.561   8.032  1.00  0.00    -0.774 OA
ATOM     22  H10 UNK     1      46.594  21.387   7.068  1.00  0.00     0.167 HD
ENDBRANCH  19  21
ENDBRANCH  15  19
BRANCH  16  23
ATOM     23  O5  UNK     1      49.918  20.865  10.659  1.00  0.00    -0.390 OA
ATOM     24  H8  UNK     1      50.727  20.455  10.307  1.00  0.00     0.210 HD
ENDBRANCH  16  23
BRANCH  17  25
ATOM     25  O3  UNK     1      49.619  18.388  12.150  1.00  0.00    -0.390 OA
ATOM     26  H6  UNK     1      49.294  17.747  12.804  1.00  0.00     0.210 HD
ENDBRANCH  17  25
BRANCH  18  27
ATOM     27  O4  UNK     1      46.855  18.143  13.137  1.00  0.00    -0.388 OA
ATOM     28  H7  UNK     1      47.139  17.225  13.284  1.00  0.00     0.210 HD
ENDBRANCH  18  27
ENDBRANCH  12  13
ENDBRANCH   3  12
BRANCH   5  29
ATOM     29  O9  UNK     1      42.799  16.902  11.719  1.00  0.00    -0.356 OA
ATOM     30  H12 UNK     1      43.339  16.610  12.474  1.00  0.00     0.218 HD
ENDBRANCH   5  29
BRANCH   8  31
ATOM     31  O10 UNK     1      40.419  18.006  12.466  1.00  0.00    -0.357 OA
ATOM     32  H13 UNK     1      40.119  17.524  11.681  1.00  0.00     0.217 HD
ENDBRANCH   8  31
BRANCH  10  33
ATOM     33  C16 UNK     1      41.224  24.482  12.317  1.00  0.00    -0.002 A 
ATOM     34  C17 UNK     1      40.093  25.218  12.678  1.00  0.00     0.014 A 
ATOM     35  C19 UNK     1      40.140  26.612  12.692  1.00  0.00     0.001 A 
ATOM     36  C21 UNK     1      41.318  27.275  12.346  1.00  0.00     0.000 A 
ATOM     37  C20 UNK     1      42.449  26.543  11.986  1.00  0.00     0.001 A 
ATOM     38  C18 UNK     1      42.402  25.148  11.972  1.00  0.00     0.014 A 
ENDBRANCH  10  33
TORSDOF 10
ENDMDL
