MODEL 1
REMARK VINA RESULT:      -6.5      0.000      0.000
REMARK  10 active torsions:
REMARK  status: ('A' for Active; 'I' for Inactive)
REMARK    1  A    between atoms: O2_2  and  C4_15 
REMARK    2  A    between atoms: O2_2  and  C7_18 
REMARK    3  A    between atoms: O3_3  and  C1_12 
REMARK    4  A    between atoms: O4_4  and  C2_13 
REMARK    5  A    between atoms: O5_5  and  C3_14 
REMARK    6  A    between atoms: O6_6  and  C6_17 
REMARK    7  A    between atoms: O9_9  and  C9_20 
REMARK    8  A    between atoms: O10_10  and  C12_23 
REMARK    9  A    between atoms: C5_16  and  C6_17 
REMARK   10  A    between atoms: C14_25  and  C16_27 
ROOT
ATOM      1  O8  UNK     1      44.615   8.985  -9.425  1.00  0.00    -0.309 OA
ATOM      2  O11 UNK     1      46.271   5.829 -11.399  1.00  0.00    -0.287 OA
ATOM      3  C7  UNK     1      48.132   9.722  -8.818  1.00  0.00     0.110 A 
ATOM      4  C8  UNK     1      46.740   9.813  -8.811  1.00  0.00     0.078 A 
ATOM      5  C9  UNK     1      48.762   8.666  -9.477  1.00  0.00     0.134 A 
ATOM      6  C10 UNK     1      45.979   8.844  -9.467  1.00  0.00     0.096 A 
ATOM      7  C11 UNK     1      46.611   7.790 -10.124  1.00  0.00     0.084 A 
ATOM      8  C12 UNK     1      48.004   7.696 -10.133  1.00  0.00     0.118 A 
ATOM      9  C13 UNK     1      45.784   6.781 -10.805  1.00  0.00     0.190 A 
ATOM     10  C14 UNK     1      43.834   8.041 -10.074  1.00  0.00     0.090 A 
ATOM     11  C15 UNK     1      44.322   6.980 -10.735  1.00  0.00     0.094 A 
ENDROOT
BRANCH   3  12
ATOM     12  O2  UNK     1      48.867  10.675  -8.175  1.00  0.00    -0.315 OA
BRANCH  12  13
ATOM     13  C4  UNK     1      48.380  11.107  -6.904  1.00  0.00     0.299 C 
ATOM     14  O1  UNK     1      48.687  12.487  -6.715  1.00  0.00    -0.340 OA
ATOM     15  C5  UNK     1      48.206  12.983  -5.471  1.00  0.00     0.253 C 
ATOM     16  C3  UNK     1      48.869  12.265  -4.302  1.00  0.00     0.189 C 
ATOM     17  C1  UNK     1      48.693  10.752  -4.425  1.00  0.00     0.183 C 
ATOM     18  C2  UNK     1      49.058  10.260  -5.826  1.00  0.00     0.205 C 
BRANCH  15  19
ATOM     19  C6  UNK     1      48.595  14.425  -5.503  1.00  0.00     0.172 C 
ATOM     20  O7  UNK     1      48.060  15.311  -4.853  1.00  0.00    -0.648 OA
BRANCH  19  21
ATOM     21  O6  UNK     1      49.626  14.624  -6.360  1.00  0.00    -0.774 OA
ATOM     22  H10 UNK     1      50.103  13.790  -6.559  1.00  0.00     0.167 HD
ENDBRANCH  19  21
ENDBRANCH  15  19
BRANCH  16  23
ATOM     23  O5  UNK     1      48.262  12.708  -3.090  1.00  0.00    -0.390 OA
ATOM     24  H8  UNK     1      47.776  11.958  -2.704  1.00  0.00     0.210 HD
ENDBRANCH  16  23
BRANCH  17  25
ATOM     25  O3  UNK     1      49.546  10.127  -3.464  1.00  0.00    -0.390 OA
ATOM     26  H6  UNK     1      49.707   9.216  -3.759  1.00  0.00     0.210 HD
ENDBRANCH  17  25
BRANCH  18  27
ATOM     27  O4  UNK     1      48.624   8.908  -5.982  1.00  0.00    -0.388 OA
ATOM     28  H7  UNK     1      47.658   8.919  -6.088  1.00  0.00     0.210 HD
ENDBRANCH  18  27
ENDBRANCH  12  13
ENDBRANCH   3  12
BRANCH   5  29
ATOM     29  O9  UNK     1      50.125   8.585  -9.479  1.00  0.00    -0.356 OA
ATOM     30  H12 UNK     1      50.377   7.647  -9.541  1.00  0.00     0.218 HD
ENDBRANCH   5  29
BRANCH   8  31
ATOM     31  O10 UNK     1      48.656   6.680 -10.766  1.00  0.00    -0.357 OA
ATOM     32  H13 UNK     1      49.452   6.424 -10.276  1.00  0.00     0.217 HD
ENDBRANCH   8  31
BRANCH  10  33
ATOM     33  C16 UNK     1      42.381   8.286  -9.962  1.00  0.00    -0.002 A 
ATOM     34  C17 UNK     1      41.536   7.283  -9.479  1.00  0.00     0.014 A 
ATOM     35  C19 UNK     1      40.164   7.515  -9.373  1.00  0.00     0.001 A 
ATOM     36  C21 UNK     1      39.634   8.749  -9.748  1.00  0.00     0.000 A 
ATOM     37  C20 UNK     1      40.475   9.752 -10.231  1.00  0.00     0.001 A 
ATOM     38  C18 UNK     1      41.846   9.520 -10.337  1.00  0.00     0.014 A 
ENDBRANCH  10  33
TORSDOF 10
ENDMDL
MODEL 2
REMARK VINA RESULT:      -5.8      2.072      2.915
REMARK  10 active torsions:
REMARK  status: ('A' for Active; 'I' for Inactive)
REMARK    1  A    between atoms: O2_2  and  C4_15 
REMARK    2  A    between atoms: O2_2  and  C7_18 
REMARK    3  A    between atoms: O3_3  and  C1_12 
REMARK    4  A    between atoms: O4_4  and  C2_13 
REMARK    5  A    between atoms: O5_5  and  C3_14 
REMARK    6  A    between atoms: O6_6  and  C6_17 
REMARK    7  A    between atoms: O9_9  and  C9_20 
REMARK    8  A    between atoms: O10_10  and  C12_23 
REMARK    9  A    between atoms: C5_16  and  C6_17 
REMARK   10  A    between atoms: C14_25  and  C16_27 
ROOT
ATOM      1  O8  UNK     1      44.157   9.558  -9.013  1.00  0.00    -0.309 OA
ATOM      2  O11 UNK     1      44.240  12.684 -11.625  1.00  0.00    -0.287 OA
ATOM      3  C7  UNK     1      47.474  10.853  -8.237  1.00  0.00     0.110 A 
ATOM      4  C8  UNK     1      46.322  10.065  -8.219  1.00  0.00     0.078 A 
ATOM      5  C9  UNK     1      47.566  11.939  -9.107  1.00  0.00     0.134 A 
ATOM      6  C10 UNK     1      45.262  10.368  -9.075  1.00  0.00     0.096 A 
ATOM      7  C11 UNK     1      45.357  11.454  -9.943  1.00  0.00     0.084 A 
ATOM      8  C12 UNK     1      46.508  12.244  -9.964  1.00  0.00     0.118 A 
ATOM      9  C13 UNK     1      44.225  11.749 -10.835  1.00  0.00     0.190 A 
ATOM     10  C14 UNK     1      43.085   9.840  -9.846  1.00  0.00     0.090 A 
ATOM     11  C15 UNK     1      43.058  10.851 -10.728  1.00  0.00     0.094 A 
ENDROOT
BRANCH   3  12
ATOM     12  O2  UNK     1      48.504  10.549  -7.396  1.00  0.00    -0.315 OA
BRANCH  12  13
ATOM     13  C4  UNK     1      48.357  10.949  -6.033  1.00  0.00     0.299 C 
ATOM     14  O1  UNK     1      48.849  12.276  -5.866  1.00  0.00    -0.340 OA
ATOM     15  C5  UNK     1      48.708  12.740  -4.528  1.00  0.00     0.253 C 
ATOM     16  C3  UNK     1      49.525  11.888  -3.564  1.00  0.00     0.189 C 
ATOM     17  C1  UNK     1      49.158  10.411  -3.702  1.00  0.00     0.183 C 
ATOM     18  C2  UNK     1      49.153   9.972  -5.167  1.00  0.00     0.205 C 
BRANCH  15  19
ATOM     19  C6  UNK     1      49.239  14.135  -4.591  1.00  0.00     0.172 C 
ATOM     20  O7  UNK     1      49.982  14.565  -5.461  1.00  0.00    -0.648 OA
BRANCH  19  21
ATOM     21  O6  UNK     1      48.787  14.867  -3.543  1.00  0.00    -0.774 OA
ATOM     22  H10 UNK     1      48.081  15.493  -3.811  1.00  0.00     0.167 HD
ENDBRANCH  19  21
ENDBRANCH  15  19
BRANCH  16  23
ATOM     23  O5  UNK     1      49.249  12.314  -2.230  1.00  0.00    -0.390 OA
ATOM     24  H8  UNK     1      50.096  12.420  -1.766  1.00  0.00     0.210 HD
ENDBRANCH  16  23
BRANCH  17  25
ATOM     25  O3  UNK     1      50.124   9.646  -2.979  1.00  0.00    -0.390 OA
ATOM     26  H6  UNK     1      50.698   9.205  -3.628  1.00  0.00     0.210 HD
ENDBRANCH  17  25
BRANCH  18  27
ATOM     27  O4  UNK     1      48.548   8.683  -5.273  1.00  0.00    -0.388 OA
ATOM     28  H7  UNK     1      47.670   8.802  -5.673  1.00  0.00     0.210 HD
ENDBRANCH  18  27
ENDBRANCH  12  13
ENDBRANCH   3  12
BRANCH   5  29
ATOM     29  O9  UNK     1      48.697  12.704  -9.118  1.00  0.00    -0.356 OA
ATOM     30  H12 UNK     1      49.163  12.577  -8.274  1.00  0.00     0.218 HD
ENDBRANCH   5  29
BRANCH   8  31
ATOM     31  O10 UNK     1      46.636  13.314 -10.800  1.00  0.00    -0.357 OA
ATOM     32  H13 UNK     1      45.772  13.587 -11.143  1.00  0.00     0.217 HD
ENDBRANCH   8  31
BRANCH  10  33
ATOM     33  C16 UNK     1      41.951   8.904  -9.701  1.00  0.00    -0.002 A 
ATOM     34  C17 UNK     1      40.638   9.377  -9.775  1.00  0.00     0.014 A 
ATOM     35  C19 UNK     1      39.567   8.493  -9.639  1.00  0.00     0.001 A 
ATOM     36  C21 UNK     1      39.805   7.135  -9.430  1.00  0.00     0.000 A 
ATOM     37  C20 UNK     1      41.114   6.660  -9.355  1.00  0.00     0.001 A 
ATOM     38  C18 UNK     1      42.185   7.544  -9.491  1.00  0.00     0.014 A 
ENDBRANCH  10  33
TORSDOF 10
ENDMDL
MODEL 3
REMARK VINA RESULT:      -5.8      1.127      2.813
REMARK  10 active torsions:
REMARK  status: ('A' for Active; 'I' for Inactive)
REMARK    1  A    between atoms: O2_2  and  C4_15 
REMARK    2  A    between atoms: O2_2  and  C7_18 
REMARK    3  A    between atoms: O3_3  and  C1_12 
REMARK    4  A    between atoms: O4_4  and  C2_13 
REMARK    5  A    between atoms: O5_5  and  C3_14 
REMARK    6  A    between atoms: O6_6  and  C6_17 
REMARK    7  A    between atoms: O9_9  and  C9_20 
REMARK    8  A    between atoms: O10_10  and  C12_23 
REMARK    9  A    between atoms: C5_16  and  C6_17 
REMARK   10  A    between atoms: C14_25  and  C16_27 
ROOT
ATOM      1  O8  UNK     1      44.685   9.956  -9.216  1.00  0.00    -0.309 OA
ATOM      2  O11 UNK     1      47.195   7.060 -10.599  1.00  0.00    -0.287 OA
ATOM      3  C7  UNK     1      47.867  11.603  -8.549  1.00  0.00     0.110 A 
ATOM      4  C8  UNK     1      46.497  11.352  -8.628  1.00  0.00     0.078 A 
ATOM      5  C9  UNK     1      48.781  10.652  -9.007  1.00  0.00     0.134 A 
ATOM      6  C10 UNK     1      46.042  10.147  -9.166  1.00  0.00     0.096 A 
ATOM      7  C11 UNK     1      46.957   9.199  -9.622  1.00  0.00     0.084 A 
ATOM      8  C12 UNK     1      48.329   9.447  -9.545  1.00  0.00     0.118 A 
ATOM      9  C13 UNK     1      46.450   7.937 -10.183  1.00  0.00     0.190 A 
ATOM     10  C14 UNK     1      44.204   8.771  -9.753  1.00  0.00     0.090 A 
ATOM     11  C15 UNK     1      44.982   7.782 -10.218  1.00  0.00     0.094 A 
ENDROOT
BRANCH   3  12
ATOM     12  O2  UNK     1      48.301  12.783  -8.022  1.00  0.00    -0.315 OA
BRANCH  12  13
ATOM     13  C4  UNK     1      49.066  12.703  -6.819  1.00  0.00     0.299 C 
ATOM     14  O1  UNK     1      48.960  11.393  -6.268  1.00  0.00    -0.340 OA
ATOM     15  C5  UNK     1      49.723  11.245  -5.075  1.00  0.00     0.253 C 
ATOM     16  C3  UNK     1      49.217  12.179  -3.982  1.00  0.00     0.189 C 
ATOM     17  C1  UNK     1      49.194  13.626  -4.474  1.00  0.00     0.183 C 
ATOM     18  C2  UNK     1      48.515  13.740  -5.840  1.00  0.00     0.205 C 
BRANCH  15  19
ATOM     19  C6  UNK     1      49.501   9.816  -4.701  1.00  0.00     0.172 C 
ATOM     20  O7  UNK     1      50.077   9.229  -3.797  1.00  0.00    -0.648 OA
BRANCH  19  21
ATOM     21  O6  UNK     1      48.571   9.249  -5.507  1.00  0.00    -0.774 OA
ATOM     22  H10 UNK     1      47.657   9.457  -5.216  1.00  0.00     0.167 HD
ENDBRANCH  19  21
ENDBRANCH  15  19
BRANCH  16  23
ATOM     23  O5  UNK     1      50.091  12.084  -2.859  1.00  0.00    -0.390 OA
ATOM     24  H8  UNK     1      50.111  12.950  -2.417  1.00  0.00     0.210 HD
ENDBRANCH  16  23
BRANCH  17  25
ATOM     25  O3  UNK     1      48.475  14.407  -3.518  1.00  0.00    -0.390 OA
ATOM     26  H6  UNK     1      48.501  15.333  -3.813  1.00  0.00     0.210 HD
ENDBRANCH  17  25
BRANCH  18  27
ATOM     27  O4  UNK     1      48.755  15.039  -6.381  1.00  0.00    -0.388 OA
ATOM     28  H7  UNK     1      49.595  15.361  -6.014  1.00  0.00     0.210 HD
ENDBRANCH  18  27
ENDBRANCH  12  13
ENDBRANCH   3  12
BRANCH   5  29
ATOM     29  O9  UNK     1      50.119  10.906  -8.926  1.00  0.00    -0.356 OA
ATOM     30  H12 UNK     1      50.251  11.870  -8.938  1.00  0.00     0.218 HD
ENDBRANCH   5  29
BRANCH   8  31
ATOM     31  O10 UNK     1      49.252   8.544  -9.982  1.00  0.00    -0.357 OA
ATOM     32  H13 UNK     1      50.014   8.994 -10.377  1.00  0.00     0.217 HD
ENDBRANCH   8  31
BRANCH  10  33
ATOM     33  C16 UNK     1      42.730   8.668  -9.754  1.00  0.00    -0.002 A 
ATOM     34  C17 UNK     1      41.951   9.759 -10.149  1.00  0.00     0.014 A 
ATOM     35  C19 UNK     1      40.559   9.661 -10.152  1.00  0.00     0.001 A 
ATOM     36  C21 UNK     1      39.943   8.473  -9.761  1.00  0.00     0.000 A 
ATOM     37  C20 UNK     1      40.717   7.382  -9.366  1.00  0.00     0.001 A 
ATOM     38  C18 UNK     1      42.109   7.480  -9.363  1.00  0.00     0.014 A 
ENDBRANCH  10  33
TORSDOF 10
ENDMDL
MODEL 4
REMARK VINA RESULT:      -5.8      2.092      8.385
REMARK  10 active torsions:
REMARK  status: ('A' for Active; 'I' for Inactive)
REMARK    1  A    between atoms: O2_2  and  C4_15 
REMARK    2  A    between atoms: O2_2  and  C7_18 
REMARK    3  A    between atoms: O3_3  and  C1_12 
REMARK    4  A    between atoms: O4_4  and  C2_13 
REMARK    5  A    between atoms: O5_5  and  C3_14 
REMARK    6  A    between atoms: O6_6  and  C6_17 
REMARK    7  A    between atoms: O9_9  and  C9_20 
REMARK    8  A    between atoms: O10_10  and  C12_23 
REMARK    9  A    between atoms: C5_16  and  C6_17 
REMARK   10  A    between atoms: C14_25  and  C16_27 
ROOT
ATOM      1  O8  UNK     1      47.590  11.548  -7.349  1.00  0.00    -0.309 OA
ATOM      2  O11 UNK     1      50.120   8.413  -6.741  1.00  0.00    -0.287 OA
ATOM      3  C7  UNK     1      46.151   9.193  -9.729  1.00  0.00     0.110 A 
ATOM      4  C8  UNK     1      46.370  10.346  -8.975  1.00  0.00     0.078 A 
ATOM      5  C9  UNK     1      46.981   8.082  -9.568  1.00  0.00     0.134 A 
ATOM      6  C10 UNK     1      47.423  10.387  -8.060  1.00  0.00     0.096 A 
ATOM      7  C11 UNK     1      48.250   9.277  -7.901  1.00  0.00     0.084 A 
ATOM      8  C12 UNK     1      48.034   8.120  -8.653  1.00  0.00     0.118 A 
ATOM      9  C13 UNK     1      49.353   9.348  -6.930  1.00  0.00     0.190 A 
ATOM     10  C14 UNK     1      48.623  11.615  -6.427  1.00  0.00     0.090 A 
ATOM     11  C15 UNK     1      49.488  10.617  -6.188  1.00  0.00     0.094 A 
ENDROOT
BRANCH   3  12
ATOM     12  O2  UNK     1      45.119   9.163 -10.620  1.00  0.00    -0.315 OA
BRANCH  12  13
ATOM     13  C4  UNK     1      43.822   8.886 -10.089  1.00  0.00     0.299 C 
ATOM     14  O1  UNK     1      43.572   7.484 -10.137  1.00  0.00    -0.340 OA
ATOM     15  C5  UNK     1      42.300   7.143  -9.598  1.00  0.00     0.253 C 
ATOM     16  C3  UNK     1      41.175   7.776 -10.409  1.00  0.00     0.189 C 
ATOM     17  C1  UNK     1      41.368   9.288 -10.515  1.00  0.00     0.183 C 
ATOM     18  C2  UNK     1      42.796   9.640 -10.935  1.00  0.00     0.205 C 
BRANCH  15  19
ATOM     19  C6  UNK     1      42.267   5.653  -9.711  1.00  0.00     0.172 C 
ATOM     20  O7  UNK     1      42.456   4.875  -8.788  1.00  0.00    -0.648 OA
BRANCH  19  21
ATOM     21  O6  UNK     1      42.003   5.275 -10.985  1.00  0.00    -0.774 OA
ATOM     22  H10 UNK     1      41.105   4.890 -11.075  1.00  0.00     0.167 HD
ENDBRANCH  19  21
ENDBRANCH  15  19
BRANCH  16  23
ATOM     23  O5  UNK     1      39.935   7.509  -9.756  1.00  0.00    -0.390 OA
ATOM     24  H8  UNK     1      39.216   7.792 -10.346  1.00  0.00     0.210 HD
ENDBRANCH  16  23
BRANCH  17  25
ATOM     25  O3  UNK     1      40.449   9.784 -11.490  1.00  0.00    -0.390 OA
ATOM     26  H6  UNK     1      39.619   9.288 -11.394  1.00  0.00     0.210 HD
ENDBRANCH  17  25
BRANCH  18  27
ATOM     27  O4  UNK     1      43.010  11.040 -10.758  1.00  0.00    -0.388 OA
ATOM     28  H7  UNK     1      43.247  11.186  -9.827  1.00  0.00     0.210 HD
ENDBRANCH  18  27
ENDBRANCH  12  13
ENDBRANCH   3  12
BRANCH   5  29
ATOM     29  O9  UNK     1      46.759   6.958 -10.309  1.00  0.00    -0.356 OA
ATOM     30  H12 UNK     1      47.183   7.073 -11.177  1.00  0.00     0.218 HD
ENDBRANCH   5  29
BRANCH   8  31
ATOM     31  O10 UNK     1      48.823   7.016  -8.525  1.00  0.00    -0.357 OA
ATOM     32  H13 UNK     1      49.562   7.191  -7.923  1.00  0.00     0.217 HD
ENDBRANCH   8  31
BRANCH  10  33
ATOM     33  C16 UNK     1      48.715  12.910  -5.721  1.00  0.00    -0.002 A 
ATOM     34  C17 UNK     1      47.722  13.285  -4.812  1.00  0.00     0.014 A 
ATOM     35  C19 UNK     1      47.810  14.507  -4.145  1.00  0.00     0.001 A 
ATOM     36  C21 UNK     1      48.889  15.357  -4.384  1.00  0.00     0.000 A 
ATOM     37  C20 UNK     1      49.882  14.986  -5.292  1.00  0.00     0.001 A 
ATOM     38  C18 UNK     1      49.794  13.763  -5.959  1.00  0.00     0.014 A 
ENDBRANCH  10  33
TORSDOF 10
ENDMDL
MODEL 5
REMARK VINA RESULT:      -5.4      2.326      8.017
REMARK  10 active torsions:
REMARK  status: ('A' for Active; 'I' for Inactive)
REMARK    1  A    between atoms: O2_2  and  C4_15 
REMARK    2  A    between atoms: O2_2  and  C7_18 
REMARK    3  A    between atoms: O3_3  and  C1_12 
REMARK    4  A    between atoms: O4_4  and  C2_13 
REMARK    5  A    between atoms: O5_5  and  C3_14 
REMARK    6  A    between atoms: O6_6  and  C6_17 
REMARK    7  A    between atoms: O9_9  and  C9_20 
REMARK    8  A    between atoms: O10_10  and  C12_23 
REMARK    9  A    between atoms: C5_16  and  C6_17 
REMARK   10  A    between atoms: C14_25  and  C16_27 
ROOT
ATOM      1  O8  UNK     1      47.897   9.604  -7.204  1.00  0.00    -0.309 OA
ATOM      2  O11 UNK     1      50.125   6.255  -7.855  1.00  0.00    -0.287 OA
ATOM      3  C7  UNK     1      46.273   8.430 -10.247  1.00  0.00     0.110 A 
ATOM      4  C8  UNK     1      46.589   9.200  -9.128  1.00  0.00     0.078 A 
ATOM      5  C9  UNK     1      46.996   7.269 -10.527  1.00  0.00     0.134 A 
ATOM      6  C10 UNK     1      47.632   8.807  -8.288  1.00  0.00     0.096 A 
ATOM      7  C11 UNK     1      48.353   7.648  -8.569  1.00  0.00     0.084 A 
ATOM      8  C12 UNK     1      48.039   6.874  -9.689  1.00  0.00     0.118 A 
ATOM      9  C13 UNK     1      49.448   7.258  -7.668  1.00  0.00     0.190 A 
ATOM     10  C14 UNK     1      48.923   9.235  -6.348  1.00  0.00     0.090 A 
ATOM     11  C15 UNK     1      49.692   8.147  -6.514  1.00  0.00     0.094 A 
ENDROOT
BRANCH   3  12
ATOM     12  O2  UNK     1      45.251   8.822 -11.062  1.00  0.00    -0.315 OA
BRANCH  12  13
ATOM     13  C4  UNK     1      44.049   9.249 -10.420  1.00  0.00     0.299 C 
ATOM     14  O1  UNK     1      43.126   8.164 -10.359  1.00  0.00    -0.340 OA
ATOM     15  C5  UNK     1      41.912   8.523  -9.707  1.00  0.00     0.253 C 
ATOM     16  C3  UNK     1      41.185   9.623 -10.471  1.00  0.00     0.189 C 
ATOM     17  C1  UNK     1      42.100  10.828 -10.688  1.00  0.00     0.183 C 
ATOM     18  C2  UNK     1      43.463  10.402 -11.234  1.00  0.00     0.205 C 
BRANCH  15  19
ATOM     19  C6  UNK     1      41.126   7.253  -9.721  1.00  0.00     0.172 C 
ATOM     20  O7  UNK     1      39.976   7.134  -9.325  1.00  0.00    -0.648 OA
BRANCH  19  21
ATOM     21  O6  UNK     1      41.865   6.238 -10.234  1.00  0.00    -0.774 OA
ATOM     22  H10 UNK     1      41.737   6.144 -11.202  1.00  0.00     0.167 HD
ENDBRANCH  19  21
ENDBRANCH  15  19
BRANCH  16  23
ATOM     23  O5  UNK     1      40.048  10.032  -9.712  1.00  0.00    -0.390 OA
ATOM     24  H8  UNK     1      39.265   9.972 -10.286  1.00  0.00     0.210 HD
ENDBRANCH  16  23
BRANCH  17  25
ATOM     25  O3  UNK     1      41.465  11.703 -11.622  1.00  0.00    -0.390 OA
ATOM     26  H6  UNK     1      41.792  11.477 -12.509  1.00  0.00     0.210 HD
ENDBRANCH  17  25
BRANCH  18  27
ATOM     27  O4  UNK     1      44.368  11.505 -11.164  1.00  0.00    -0.388 OA
ATOM     28  H7  UNK     1      43.970  12.175 -10.584  1.00  0.00     0.210 HD
ENDBRANCH  18  27
ENDBRANCH  12  13
ENDBRANCH   3  12
BRANCH   5  29
ATOM     29  O9  UNK     1      46.680   6.521 -11.624  1.00  0.00    -0.356 OA
ATOM     30  H12 UNK     1      47.405   5.893 -11.787  1.00  0.00     0.218 HD
ENDBRANCH   5  29
BRANCH   8  31
ATOM     31  O10 UNK     1      48.722   5.735  -9.994  1.00  0.00    -0.357 OA
ATOM     32  H13 UNK     1      48.986   5.265  -9.189  1.00  0.00     0.217 HD
ENDBRANCH   8  31
BRANCH  10  33
ATOM     33  C16 UNK     1      49.126  10.165  -5.218  1.00  0.00    -0.002 A 
ATOM     34  C17 UNK     1      48.515  11.421  -5.226  1.00  0.00     0.014 A 
ATOM     35  C19 UNK     1      48.706  12.299  -4.158  1.00  0.00     0.001 A 
ATOM     36  C21 UNK     1      49.507  11.923  -3.080  1.00  0.00     0.000 A 
ATOM     37  C20 UNK     1      50.119  10.669  -3.069  1.00  0.00     0.001 A 
ATOM     38  C18 UNK     1      49.928   9.792  -4.137  1.00  0.00     0.014 A 
ENDBRANCH  10  33
TORSDOF 10
ENDMDL
MODEL 6
REMARK VINA RESULT:      -5.4      2.229      7.678
REMARK  10 active torsions:
REMARK  status: ('A' for Active; 'I' for Inactive)
REMARK    1  A    between atoms: O2_2  and  C4_15 
REMARK    2  A    between atoms: O2_2  and  C7_18 
REMARK    3  A    between atoms: O3_3  and  C1_12 
REMARK    4  A    between atoms: O4_4  and  C2_13 
REMARK    5  A    between atoms: O5_5  and  C3_14 
REMARK    6  A    between atoms: O6_6  and  C6_17 
REMARK    7  A    between atoms: O9_9  and  C9_20 
REMARK    8  A    between atoms: O10_10  and  C12_23 
REMARK    9  A    between atoms: C5_16  and  C6_17 
REMARK   10  A    between atoms: C14_25  and  C16_27 
ROOT
ATOM      1  O8  UNK     1      47.136  10.931  -7.599  1.00  0.00    -0.309 OA
ATOM      2  O11 UNK     1      50.125  10.371 -10.310  1.00  0.00    -0.287 OA
ATOM      3  C7  UNK     1      45.543   8.397  -9.678  1.00  0.00     0.110 A 
ATOM      4  C8  UNK     1      45.765   9.331  -8.666  1.00  0.00     0.078 A 
ATOM      5  C9  UNK     1      46.527   8.157 -10.638  1.00  0.00     0.134 A 
ATOM      6  C10 UNK     1      46.975  10.025  -8.616  1.00  0.00     0.096 A 
ATOM      7  C11 UNK     1      47.956   9.784  -9.576  1.00  0.00     0.084 A 
ATOM      8  C12 UNK     1      47.738   8.849 -10.591  1.00  0.00     0.118 A 
ATOM      9  C13 UNK     1      49.221  10.530  -9.500  1.00  0.00     0.190 A 
ATOM     10  C14 UNK     1      48.331  11.630  -7.519  1.00  0.00     0.090 A 
ATOM     11  C15 UNK     1      49.347  11.491  -8.385  1.00  0.00     0.094 A 
ENDROOT
BRANCH   3  12
ATOM     12  O2  UNK     1      44.358   7.724  -9.718  1.00  0.00    -0.315 OA
BRANCH  12  13
ATOM     13  C4  UNK     1      43.313   8.314 -10.492  1.00  0.00     0.299 C 
ATOM     14  O1  UNK     1      43.481   9.729 -10.526  1.00  0.00    -0.340 OA
ATOM     15  C5  UNK     1      42.478  10.374 -11.305  1.00  0.00     0.253 C 
ATOM     16  C3  UNK     1      41.094  10.152 -10.707  1.00  0.00     0.189 C 
ATOM     17  C1  UNK     1      40.814   8.660 -10.529  1.00  0.00     0.183 C 
ATOM     18  C2  UNK     1      41.979   7.952  -9.838  1.00  0.00     0.205 C 
BRANCH  15  19
ATOM     19  C6  UNK     1      42.866  11.816 -11.236  1.00  0.00     0.172 C 
ATOM     20  O7  UNK     1      42.176  12.747 -11.625  1.00  0.00    -0.648 OA
BRANCH  19  21
ATOM     21  O6  UNK     1      44.096  11.955 -10.685  1.00  0.00    -0.774 OA
ATOM     22  H10 UNK     1      44.462  12.854 -10.827  1.00  0.00     0.167 HD
ENDBRANCH  19  21
ENDBRANCH  15  19
BRANCH  16  23
ATOM     23  O5  UNK     1      40.121  10.707 -11.590  1.00  0.00    -0.390 OA
ATOM     24  H8  UNK     1      39.302  10.851 -11.085  1.00  0.00     0.210 HD
ENDBRANCH  16  23
BRANCH  17  25
ATOM     25  O3  UNK     1      39.634   8.523  -9.735  1.00  0.00    -0.390 OA
ATOM     26  H6  UNK     1      39.290   7.625  -9.869  1.00  0.00     0.210 HD
ENDBRANCH  17  25
BRANCH  18  27
ATOM     27  O4  UNK     1      41.801   6.539  -9.937  1.00  0.00    -0.388 OA
ATOM     28  H7  UNK     1      42.466   6.201 -10.560  1.00  0.00     0.210 HD
ENDBRANCH  18  27
ENDBRANCH  12  13
ENDBRANCH   3  12
BRANCH   5  29
ATOM     29  O9  UNK     1      46.302   7.241 -11.625  1.00  0.00    -0.356 OA
ATOM     30  H12 UNK     1      47.018   7.312 -12.280  1.00  0.00     0.218 HD
ENDBRANCH   5  29
BRANCH   8  31
ATOM     31  O10 UNK     1      48.674   8.587 -11.546  1.00  0.00    -0.357 OA
ATOM     32  H13 UNK     1      49.561   8.817 -11.230  1.00  0.00     0.217 HD
ENDBRANCH   8  31
BRANCH  10  33
ATOM     33  C16 UNK     1      48.396  12.581  -6.391  1.00  0.00    -0.002 A 
ATOM     34  C17 UNK     1      47.745  12.289  -5.189  1.00  0.00     0.014 A 
ATOM     35  C19 UNK     1      47.807  13.187  -4.123  1.00  0.00     0.001 A 
ATOM     36  C21 UNK     1      48.521  14.378  -4.255  1.00  0.00     0.000 A 
ATOM     37  C20 UNK     1      49.172  14.673  -5.453  1.00  0.00     0.001 A 
ATOM     38  C18 UNK     1      49.109  13.775  -6.519  1.00  0.00     0.014 A 
ENDBRANCH  10  33
TORSDOF 10
ENDMDL
MODEL 7
REMARK VINA RESULT:      -5.4      2.437      7.067
REMARK  10 active torsions:
REMARK  status: ('A' for Active; 'I' for Inactive)
REMARK    1  A    between atoms: O2_2  and  C4_15 
REMARK    2  A    between atoms: O2_2  and  C7_18 
REMARK    3  A    between atoms: O3_3  and  C1_12 
REMARK    4  A    between atoms: O4_4  and  C2_13 
REMARK    5  A    between atoms: O5_5  and  C3_14 
REMARK    6  A    between atoms: O6_6  and  C6_17 
REMARK    7  A    between atoms: O9_9  and  C9_20 
REMARK    8  A    between atoms: O10_10  and  C12_23 
REMARK    9  A    between atoms: C5_16  and  C6_17 
REMARK   10  A    between atoms: C14_25  and  C16_27 
ROOT
ATOM      1  O8  UNK     1      47.618  10.076  -8.037  1.00  0.00    -0.309 OA
ATOM      2  O11 UNK     1      50.109   7.059  -6.898  1.00  0.00    -0.287 OA
ATOM      3  C7  UNK     1      46.712   7.613 -10.565  1.00  0.00     0.110 A 
ATOM      4  C8  UNK     1      46.752   8.791  -9.819  1.00  0.00     0.078 A 
ATOM      5  C9  UNK     1      47.538   6.540 -10.227  1.00  0.00     0.134 A 
ATOM      6  C10 UNK     1      47.622   8.894  -8.732  1.00  0.00     0.096 A 
ATOM      7  C11 UNK     1      48.447   7.822  -8.397  1.00  0.00     0.084 A 
ATOM      8  C12 UNK     1      48.409   6.640  -9.141  1.00  0.00     0.118 A 
ATOM      9  C13 UNK     1      49.355   7.958  -7.248  1.00  0.00     0.190 A 
ATOM     10  C14 UNK     1      48.467  10.205  -6.948  1.00  0.00     0.090 A 
ATOM     11  C15 UNK     1      49.311   9.248  -6.530  1.00  0.00     0.094 A 
ENDROOT
BRANCH   3  12
ATOM     12  O2  UNK     1      45.858   7.522 -11.625  1.00  0.00    -0.315 OA
BRANCH  12  13
ATOM     13  C4  UNK     1      44.552   8.071 -11.442  1.00  0.00     0.299 C 
ATOM     14  O1  UNK     1      44.646   9.319 -10.761  1.00  0.00    -0.340 OA
ATOM     15  C5  UNK     1      43.374   9.928 -10.570  1.00  0.00     0.253 C 
ATOM     16  C3  UNK     1      42.479   9.062  -9.692  1.00  0.00     0.189 C 
ATOM     17  C1  UNK     1      42.361   7.649 -10.265  1.00  0.00     0.183 C 
ATOM     18  C2  UNK     1      43.732   7.076 -10.620  1.00  0.00     0.205 C 
BRANCH  15  19
ATOM     19  C6  UNK     1      43.708  11.215  -9.888  1.00  0.00     0.172 C 
ATOM     20  O7  UNK     1      43.948  12.269 -10.457  1.00  0.00    -0.648 OA
BRANCH  19  21
ATOM     21  O6  UNK     1      43.713  11.056  -8.542  1.00  0.00    -0.774 OA
ATOM     22  H10 UNK     1      43.661  11.915  -8.071  1.00  0.00     0.167 HD
ENDBRANCH  19  21
ENDBRANCH  15  19
BRANCH  16  23
ATOM     23  O5  UNK     1      41.181   9.652  -9.638  1.00  0.00    -0.390 OA
ATOM     24  H8  UNK     1      41.287  10.618  -9.693  1.00  0.00     0.210 HD
ENDBRANCH  16  23
BRANCH  17  25
ATOM     25  O3  UNK     1      41.739   6.823  -9.279  1.00  0.00    -0.390 OA
ATOM     26  H6  UNK     1      42.433   6.284  -8.865  1.00  0.00     0.210 HD
ENDBRANCH  17  25
BRANCH  18  27
ATOM     27  O4  UNK     1      43.563   5.888 -11.394  1.00  0.00    -0.388 OA
ATOM     28  H7  UNK     1      44.128   5.966 -12.181  1.00  0.00     0.210 HD
ENDBRANCH  18  27
ENDBRANCH  12  13
ENDBRANCH   3  12
BRANCH   5  29
ATOM     29  O9  UNK     1      47.493   5.391 -10.962  1.00  0.00    -0.356 OA
ATOM     30  H12 UNK     1      46.919   4.754 -10.502  1.00  0.00     0.218 HD
ENDBRANCH   5  29
BRANCH   8  31
ATOM     31  O10 UNK     1      49.201   5.572  -8.842  1.00  0.00    -0.357 OA
ATOM     32  H13 UNK     1      50.006   5.858  -8.384  1.00  0.00     0.217 HD
ENDBRANCH   8  31
BRANCH  10  33
ATOM     33  C16 UNK     1      48.385  11.518  -6.276  1.00  0.00    -0.002 A 
ATOM     34  C17 UNK     1      47.970  11.599  -4.944  1.00  0.00     0.014 A 
ATOM     35  C19 UNK     1      47.895  12.839  -4.309  1.00  0.00     0.001 A 
ATOM     36  C21 UNK     1      48.234  14.000  -5.002  1.00  0.00     0.000 A 
ATOM     37  C20 UNK     1      48.648  13.923  -6.332  1.00  0.00     0.001 A 
ATOM     38  C18 UNK     1      48.724  12.683  -6.967  1.00  0.00     0.014 A 
ENDBRANCH  10  33
TORSDOF 10
ENDMDL
MODEL 8
REMARK VINA RESULT:      -5.3      1.207      1.416
REMARK  10 active torsions:
REMARK  status: ('A' for Active; 'I' for Inactive)
REMARK    1  A    between atoms: O2_2  and  C4_15 
REMARK    2  A    between atoms: O2_2  and  C7_18 
REMARK    3  A    between atoms: O3_3  and  C1_12 
REMARK    4  A    between atoms: O4_4  and  C2_13 
REMARK    5  A    between atoms: O5_5  and  C3_14 
REMARK    6  A    between atoms: O6_6  and  C6_17 
REMARK    7  A    between atoms: O9_9  and  C9_20 
REMARK    8  A    between atoms: O10_10  and  C12_23 
REMARK    9  A    between atoms: C5_16  and  C6_17 
REMARK   10  A    between atoms: C14_25  and  C16_27 
ROOT
ATOM      1  O8  UNK     1      44.931   8.634  -9.623  1.00  0.00    -0.309 OA
ATOM      2  O11 UNK     1      45.790   5.190 -11.625  1.00  0.00    -0.287 OA
ATOM      3  C7  UNK     1      48.410   8.247  -8.611  1.00  0.00     0.110 A 
ATOM      4  C8  UNK     1      47.118   8.756  -8.741  1.00  0.00     0.078 A 
ATOM      5  C9  UNK     1      48.770   7.071  -9.272  1.00  0.00     0.134 A 
ATOM      6  C10 UNK     1      46.185   8.086  -9.534  1.00  0.00     0.096 A 
ATOM      7  C11 UNK     1      46.547   6.912 -10.193  1.00  0.00     0.084 A 
ATOM      8  C12 UNK     1      47.840   6.400 -10.065  1.00  0.00     0.118 A 
ATOM      9  C13 UNK     1      45.543   6.226 -11.021  1.00  0.00     0.190 A 
ATOM     10  C14 UNK     1      43.985   7.994 -10.410  1.00  0.00     0.090 A 
ATOM     11  C15 UNK     1      44.210   6.857 -11.087  1.00  0.00     0.094 A 
ENDROOT
BRANCH   3  12
ATOM     12  O2  UNK     1      49.314   8.909  -7.833  1.00  0.00    -0.315 OA
BRANCH  12  13
ATOM     13  C4  UNK     1      48.816  10.007  -7.067  1.00  0.00     0.299 C 
ATOM     14  O1  UNK     1      49.484  11.205  -7.454  1.00  0.00    -0.340 OA
ATOM     15  C5  UNK     1      49.013  12.342  -6.738  1.00  0.00     0.253 C 
ATOM     16  C3  UNK     1      49.283  12.199  -5.245  1.00  0.00     0.189 C 
ATOM     17  C1  UNK     1      48.691  10.896  -4.709  1.00  0.00     0.183 C 
ATOM     18  C2  UNK     1      49.073   9.706  -5.590  1.00  0.00     0.205 C 
BRANCH  15  19
ATOM     19  C6  UNK     1      49.806  13.467  -7.320  1.00  0.00     0.172 C 
ATOM     20  O7  UNK     1      50.125  14.484  -6.722  1.00  0.00    -0.648 OA
BRANCH  19  21
ATOM     21  O6  UNK     1      50.125  13.209  -8.612  1.00  0.00    -0.774 OA
ATOM     22  H10 UNK     1      50.145  12.247  -8.800  1.00  0.00     0.167 HD
ENDBRANCH  19  21
ENDBRANCH  15  19
BRANCH  16  23
ATOM     23  O5  UNK     1      48.681  13.299  -4.564  1.00  0.00    -0.390 OA
ATOM     24  H8  UNK     1      48.133  13.786  -5.203  1.00  0.00     0.210 HD
ENDBRANCH  16  23
BRANCH  17  25
ATOM     25  O3  UNK     1      49.195  10.691  -3.388  1.00  0.00    -0.390 OA
ATOM     26  H6  UNK     1      50.163  10.755  -3.427  1.00  0.00     0.210 HD
ENDBRANCH  17  25
BRANCH  18  27
ATOM     27  O4  UNK     1      48.289   8.572  -5.221  1.00  0.00    -0.388 OA
ATOM     28  H7  UNK     1      47.675   8.853  -4.522  1.00  0.00     0.210 HD
ENDBRANCH  18  27
ENDBRANCH  12  13
ENDBRANCH   3  12
BRANCH   5  29
ATOM     29  O9  UNK     1      50.037   6.580  -9.139  1.00  0.00    -0.356 OA
ATOM     30  H12 UNK     1      50.321   6.708  -8.217  1.00  0.00     0.218 HD
ENDBRANCH   5  29
BRANCH   8  31
ATOM     31  O10 UNK     1      48.229   5.255 -10.695  1.00  0.00    -0.357 OA
ATOM     32  H13 UNK     1      47.462   4.781 -11.051  1.00  0.00     0.217 HD
ENDBRANCH   8  31
BRANCH  10  33
ATOM     33  C16 UNK     1      42.669   8.665 -10.432  1.00  0.00    -0.002 A 
ATOM     34  C17 UNK     1      41.698   8.335  -9.483  1.00  0.00     0.014 A 
ATOM     35  C19 UNK     1      40.456   8.970  -9.503  1.00  0.00     0.001 A 
ATOM     36  C21 UNK     1      40.181   9.936 -10.471  1.00  0.00     0.000 A 
ATOM     37  C20 UNK     1      41.148  10.267 -11.420  1.00  0.00     0.001 A 
ATOM     38  C18 UNK     1      42.391   9.632 -11.400  1.00  0.00     0.014 A 
ENDBRANCH  10  33
TORSDOF 10
ENDMDL
MODEL 9
REMARK VINA RESULT:      -5.2      2.424      7.207
REMARK  10 active torsions:
REMARK  status: ('A' for Active; 'I' for Inactive)
REMARK    1  A    between atoms: O2_2  and  C4_15 
REMARK    2  A    between atoms: O2_2  and  C7_18 
REMARK    3  A    between atoms: O3_3  and  C1_12 
REMARK    4  A    between atoms: O4_4  and  C2_13 
REMARK    5  A    between atoms: O5_5  and  C3_14 
REMARK    6  A    between atoms: O6_6  and  C6_17 
REMARK    7  A    between atoms: O9_9  and  C9_20 
REMARK    8  A    between atoms: O10_10  and  C12_23 
REMARK    9  A    between atoms: C5_16  and  C6_17 
REMARK   10  A    between atoms: C14_25  and  C16_27 
ROOT
ATOM      1  O8  UNK     1      46.972  10.397  -7.766  1.00  0.00    -0.309 OA
ATOM      2  O11 UNK     1      50.125   7.853  -8.200  1.00  0.00    -0.287 OA
ATOM      3  C7  UNK     1      45.477   8.041 -10.111  1.00  0.00     0.110 A 
ATOM      4  C8  UNK     1      45.648   9.130  -9.256  1.00  0.00     0.078 A 
ATOM      5  C9  UNK     1      46.517   7.131 -10.302  1.00  0.00     0.134 A 
ATOM      6  C10 UNK     1      46.863   9.308  -8.592  1.00  0.00     0.096 A 
ATOM      7  C11 UNK     1      47.900   8.398  -8.786  1.00  0.00     0.084 A 
ATOM      8  C12 UNK     1      47.733   7.306  -9.641  1.00  0.00     0.118 A 
ATOM      9  C13 UNK     1      49.171   8.610  -8.076  1.00  0.00     0.190 A 
ATOM     10  C14 UNK     1      48.165  10.594  -7.088  1.00  0.00     0.090 A 
ATOM     11  C15 UNK     1      49.237   9.794  -7.195  1.00  0.00     0.094 A 
ENDROOT
BRANCH   3  12
ATOM     12  O2  UNK     1      44.285   7.877 -10.754  1.00  0.00    -0.315 OA
BRANCH  12  13
ATOM     13  C4  UNK     1      43.691   9.051 -11.308  1.00  0.00     0.299 C 
ATOM     14  O1  UNK     1      44.365  10.208 -10.820  1.00  0.00    -0.340 OA
ATOM     15  C5  UNK     1      43.830  11.413 -11.357  1.00  0.00     0.253 C 
ATOM     16  C3  UNK     1      42.374  11.597 -10.945  1.00  0.00     0.189 C 
ATOM     17  C1  UNK     1      41.542  10.374 -11.333  1.00  0.00     0.183 C 
ATOM     18  C2  UNK     1      42.220   9.076 -10.892  1.00  0.00     0.205 C 
BRANCH  15  19
ATOM     19  C6  UNK     1      44.694  12.471 -10.754  1.00  0.00     0.172 C 
ATOM     20  O7  UNK     1      45.772  12.837 -11.200  1.00  0.00    -0.648 OA
BRANCH  19  21
ATOM     21  O6  UNK     1      44.122  12.976  -9.633  1.00  0.00    -0.774 OA
ATOM     22  H10 UNK     1      44.336  12.440  -8.839  1.00  0.00     0.167 HD
ENDBRANCH  19  21
ENDBRANCH  15  19
BRANCH  16  23
ATOM     23  O5  UNK     1      41.852  12.746 -11.611  1.00  0.00    -0.390 OA
ATOM     24  H8  UNK     1      41.337  12.442 -12.377  1.00  0.00     0.210 HD
ENDBRANCH  16  23
BRANCH  17  25
ATOM     25  O3  UNK     1      40.268  10.486 -10.697  1.00  0.00    -0.390 OA
ATOM     26  H6  UNK     1      39.825   9.625 -10.769  1.00  0.00     0.210 HD
ENDBRANCH  17  25
BRANCH  18  27
ATOM     27  O4  UNK     1      41.562   7.967 -11.505  1.00  0.00    -0.388 OA
ATOM     28  H7  UNK     1      41.296   7.355 -10.798  1.00  0.00     0.210 HD
ENDBRANCH  18  27
ENDBRANCH  12  13
ENDBRANCH   3  12
BRANCH   5  29
ATOM     29  O9  UNK     1      46.342   6.068 -11.140  1.00  0.00    -0.356 OA
ATOM     30  H12 UNK     1      47.138   5.977 -11.693  1.00  0.00     0.218 HD
ENDBRANCH   5  29
BRANCH   8  31
ATOM     31  O10 UNK     1      48.725   6.396  -9.854  1.00  0.00    -0.357 OA
ATOM     32  H13 UNK     1      48.645   5.999 -10.735  1.00  0.00     0.217 HD
ENDBRANCH   8  31
BRANCH  10  33
ATOM     33  C16 UNK     1      48.176  11.797  -6.231  1.00  0.00    -0.002 A 
ATOM     34  C17 UNK     1      47.804  11.704  -4.887  1.00  0.00     0.014 A 
ATOM     35  C19 UNK     1      47.815  12.840  -4.077  1.00  0.00     0.001 A 
ATOM     36  C21 UNK     1      48.199  14.072  -4.608  1.00  0.00     0.000 A 
ATOM     37  C20 UNK     1      48.572  14.168  -5.949  1.00  0.00     0.001 A 
ATOM     38  C18 UNK     1      48.560  13.032  -6.758  1.00  0.00     0.014 A 
ENDBRANCH  10  33
TORSDOF 10
ENDMDL
MODEL 10
REMARK VINA RESULT:      -4.9      1.504      3.054
REMARK  10 active torsions:
REMARK  status: ('A' for Active; 'I' for Inactive)
REMARK    1  A    between atoms: O2_2  and  C4_15 
REMARK    2  A    between atoms: O2_2  and  C7_18 
REMARK    3  A    between atoms: O3_3  and  C1_12 
REMARK    4  A    between atoms: O4_4  and  C2_13 
REMARK    5  A    between atoms: O5_5  and  C3_14 
REMARK    6  A    between atoms: O6_6  and  C6_17 
REMARK    7  A    between atoms: O9_9  and  C9_20 
REMARK    8  A    between atoms: O10_10  and  C12_23 
REMARK    9  A    between atoms: C5_16  and  C6_17 
REMARK   10  A    between atoms: C14_25  and  C16_27 
ROOT
ATOM      1  O8  UNK     1      44.733   8.749 -10.285  1.00  0.00    -0.309 OA
ATOM      2  O11 UNK     1      45.935   4.950 -11.137  1.00  0.00    -0.287 OA
ATOM      3  C7  UNK     1      48.312   9.352 -10.617  1.00  0.00     0.110 A 
ATOM      4  C8  UNK     1      46.948   9.559 -10.409  1.00  0.00     0.078 A 
ATOM      5  C9  UNK     1      48.789   8.074 -10.914  1.00  0.00     0.134 A 
ATOM      6  C10 UNK     1      46.061   8.484 -10.500  1.00  0.00     0.096 A 
ATOM      7  C11 UNK     1      46.541   7.210 -10.796  1.00  0.00     0.084 A 
ATOM      8  C12 UNK     1      47.906   6.999 -11.005  1.00  0.00     0.118 A 
ATOM      9  C13 UNK     1      45.584   6.095 -10.883  1.00  0.00     0.190 A 
ATOM     10  C14 UNK     1      43.828   7.702 -10.375  1.00  0.00     0.090 A 
ATOM     11  C15 UNK     1      44.166   6.433 -10.648  1.00  0.00     0.094 A 
ENDROOT
BRANCH   3  12
ATOM     12  O2  UNK     1      49.169  10.408 -10.527  1.00  0.00    -0.315 OA
BRANCH  12  13
ATOM     13  C4  UNK     1      49.710  10.685  -9.234  1.00  0.00     0.299 C 
ATOM     14  O1  UNK     1      49.155   9.785  -8.278  1.00  0.00    -0.340 OA
ATOM     15  C5  UNK     1      49.674   9.997  -6.970  1.00  0.00     0.253 C 
ATOM     16  C3  UNK     1      49.320  11.389  -6.460  1.00  0.00     0.189 C 
ATOM     17  C1  UNK     1      49.784  12.462  -7.445  1.00  0.00     0.183 C 
ATOM     18  C2  UNK     1      49.358  12.128  -8.874  1.00  0.00     0.205 C 
BRANCH  15  19
ATOM     19  C6  UNK     1      48.998   8.942  -6.157  1.00  0.00     0.172 C 
ATOM     20  O7  UNK     1      48.787   7.797  -6.529  1.00  0.00    -0.648 OA
BRANCH  19  21
ATOM     21  O6  UNK     1      48.643   9.427  -4.942  1.00  0.00    -0.774 OA
ATOM     22  H10 UNK     1      49.351   9.980  -4.547  1.00  0.00     0.167 HD
ENDBRANCH  19  21
ENDBRANCH  15  19
BRANCH  16  23
ATOM     23  O5  UNK     1      49.969  11.595  -5.206  1.00  0.00    -0.390 OA
ATOM     24  H8  UNK     1      50.814  12.046  -5.374  1.00  0.00     0.210 HD
ENDBRANCH  16  23
BRANCH  17  25
ATOM     25  O3  UNK     1      49.202  13.705  -7.051  1.00  0.00    -0.390 OA
ATOM     26  H6  UNK     1      48.277  13.706  -7.350  1.00  0.00     0.210 HD
ENDBRANCH  17  25
BRANCH  18  27
ATOM     27  O4  UNK     1      50.035  12.995  -9.785  1.00  0.00    -0.388 OA
ATOM     28  H7  UNK     1      50.277  13.801  -9.300  1.00  0.00     0.210 HD
ENDBRANCH  18  27
ENDBRANCH  12  13
ENDBRANCH   3  12
BRANCH   5  29
ATOM     29  O9  UNK     1      50.125   7.880 -11.116  1.00  0.00    -0.356 OA
ATOM     30  H12 UNK     1      50.243   7.398 -11.953  1.00  0.00     0.218 HD
ENDBRANCH   5  29
BRANCH   8  31
ATOM     31  O10 UNK     1      48.410   5.766 -11.297  1.00  0.00    -0.357 OA
ATOM     32  H13 UNK     1      47.760   5.235 -11.781  1.00  0.00     0.217 HD
ENDBRANCH   8  31
BRANCH  10  33
ATOM     33  C16 UNK     1      42.427   8.097 -10.122  1.00  0.00    -0.002 A 
ATOM     34  C17 UNK     1      41.999   9.394 -10.416  1.00  0.00     0.014 A 
ATOM     35  C19 UNK     1      40.676   9.766 -10.177  1.00  0.00     0.001 A 
ATOM     36  C21 UNK     1      39.776   8.843  -9.645  1.00  0.00     0.000 A 
ATOM     37  C20 UNK     1      40.200   7.546  -9.351  1.00  0.00     0.001 A 
ATOM     38  C18 UNK     1      41.523   7.175  -9.589  1.00  0.00     0.014 A 
ENDBRANCH  10  33
TORSDOF 10
ENDMDL
MODEL 11
REMARK VINA RESULT:      -4.8      2.410      4.334
REMARK  10 active torsions:
REMARK  status: ('A' for Active; 'I' for Inactive)
REMARK    1  A    between atoms: O2_2  and  C4_15 
REMARK    2  A    between atoms: O2_2  and  C7_18 
REMARK    3  A    between atoms: O3_3  and  C1_12 
REMARK    4  A    between atoms: O4_4  and  C2_13 
REMARK    5  A    between atoms: O5_5  and  C3_14 
REMARK    6  A    between atoms: O6_6  and  C6_17 
REMARK    7  A    between atoms: O9_9  and  C9_20 
REMARK    8  A    between atoms: O10_10  and  C12_23 
REMARK    9  A    between atoms: C5_16  and  C6_17 
REMARK   10  A    between atoms: C14_25  and  C16_27 
ROOT
ATOM      1  O8  UNK     1      44.849   9.651 -10.125  1.00  0.00    -0.309 OA
ATOM      2  O11 UNK     1      43.726  13.287 -11.582  1.00  0.00    -0.287 OA
ATOM      3  C7  UNK     1      48.140  11.194 -10.388  1.00  0.00     0.110 A 
ATOM      4  C8  UNK     1      47.129  10.265 -10.138  1.00  0.00     0.078 A 
ATOM      5  C9  UNK     1      47.823  12.458 -10.887  1.00  0.00     0.134 A 
ATOM      6  C10 UNK     1      45.799  10.605 -10.388  1.00  0.00     0.096 A 
ATOM      7  C11 UNK     1      45.485  11.868 -10.887  1.00  0.00     0.084 A 
ATOM      8  C12 UNK     1      46.494  12.800 -11.138  1.00  0.00     0.118 A 
ATOM      9  C13 UNK     1      44.074  12.198 -11.143  1.00  0.00     0.190 A 
ATOM     10  C14 UNK     1      43.518   9.963 -10.357  1.00  0.00     0.090 A 
ATOM     11  C15 UNK     1      43.090  11.140 -10.839  1.00  0.00     0.094 A 
ENDROOT
BRANCH   3  12
ATOM     12  O2  UNK     1      49.437  10.852 -10.140  1.00  0.00    -0.315 OA
BRANCH  12  13
ATOM     13  C4  UNK     1      49.765  10.524  -8.789  1.00  0.00     0.299 C 
ATOM     14  O1  UNK     1      49.216   9.251  -8.457  1.00  0.00    -0.340 OA
ATOM     15  C5  UNK     1      49.530   8.858  -7.125  1.00  0.00     0.253 C 
ATOM     16  C3  UNK     1      48.930   9.827  -6.113  1.00  0.00     0.189 C 
ATOM     17  C1  UNK     1      49.370  11.261  -6.408  1.00  0.00     0.183 C 
ATOM     18  C2  UNK     1      49.179  11.609  -7.885  1.00  0.00     0.205 C 
BRANCH  15  19
ATOM     19  C6  UNK     1      48.902   7.507  -7.009  1.00  0.00     0.172 C 
ATOM     20  O7  UNK     1      49.388   6.469  -7.432  1.00  0.00    -0.648 OA
BRANCH  19  21
ATOM     21  O6  UNK     1      47.710   7.586  -6.370  1.00  0.00    -0.774 OA
ATOM     22  H10 UNK     1      47.818   7.648  -5.397  1.00  0.00     0.167 HD
ENDBRANCH  19  21
ENDBRANCH  15  19
BRANCH  16  23
ATOM     23  O5  UNK     1      49.378   9.461  -4.809  1.00  0.00    -0.390 OA
ATOM     24  H8  UNK     1      49.992  10.149  -4.497  1.00  0.00     0.210 HD
ENDBRANCH  16  23
BRANCH  17  25
ATOM     25  O3  UNK     1      48.580  12.140  -5.606  1.00  0.00    -0.390 OA
ATOM     26  H6  UNK     1      49.122  12.416  -4.849  1.00  0.00     0.210 HD
ENDBRANCH  17  25
BRANCH  18  27
ATOM     27  O4  UNK     1      49.846  12.839  -8.171  1.00  0.00    -0.388 OA
ATOM     28  H7  UNK     1      49.266  13.562  -7.884  1.00  0.00     0.210 HD
ENDBRANCH  18  27
ENDBRANCH  12  13
ENDBRANCH   3  12
BRANCH   5  29
ATOM     29  O9  UNK     1      48.819  13.360 -11.128  1.00  0.00    -0.356 OA
ATOM     30  H12 UNK     1      49.167  13.202 -12.023  1.00  0.00     0.218 HD
ENDBRANCH   5  29
BRANCH   8  31
ATOM     31  O10 UNK     1      46.224  14.044 -11.625  1.00  0.00    -0.357 OA
ATOM     32  H13 UNK     1      46.874  14.688 -11.303  1.00  0.00     0.217 HD
ENDBRANCH   8  31
BRANCH  10  33
ATOM     33  C16 UNK     1      42.581   8.865 -10.043  1.00  0.00    -0.002 A 
ATOM     34  C17 UNK     1      43.022   7.539 -10.065  1.00  0.00     0.014 A 
ATOM     35  C19 UNK     1      42.137   6.502  -9.768  1.00  0.00     0.001 A 
ATOM     36  C21 UNK     1      40.810   6.787  -9.448  1.00  0.00     0.000 A 
ATOM     37  C20 UNK     1      40.367   8.109  -9.425  1.00  0.00     0.001 A 
ATOM     38  C18 UNK     1      41.252   9.146  -9.722  1.00  0.00     0.014 A 
ENDBRANCH  10  33
TORSDOF 10
ENDMDL
MODEL 12
REMARK VINA RESULT:      -4.7      2.567      3.924
REMARK  10 active torsions:
REMARK  status: ('A' for Active; 'I' for Inactive)
REMARK    1  A    between atoms: O2_2  and  C4_15 
REMARK    2  A    between atoms: O2_2  and  C7_18 
REMARK    3  A    between atoms: O3_3  and  C1_12 
REMARK    4  A    between atoms: O4_4  and  C2_13 
REMARK    5  A    between atoms: O5_5  and  C3_14 
REMARK    6  A    between atoms: O6_6  and  C6_17 
REMARK    7  A    between atoms: O9_9  and  C9_20 
REMARK    8  A    between atoms: O10_10  and  C12_23 
REMARK    9  A    between atoms: C5_16  and  C6_17 
REMARK   10  A    between atoms: C14_25  and  C16_27 
ROOT
ATOM      1  O8  UNK     1      45.588  12.468  -9.845  1.00  0.00    -0.309 OA
ATOM      2  O11 UNK     1      44.872   8.462 -10.052  1.00  0.00    -0.287 OA
ATOM      3  C7  UNK     1      48.838  11.256  -8.725  1.00  0.00     0.110 A 
ATOM      4  C8  UNK     1      47.796  12.111  -9.088  1.00  0.00     0.078 A 
ATOM      5  C9  UNK     1      48.658   9.873  -8.775  1.00  0.00     0.134 A 
ATOM      6  C10 UNK     1      46.574  11.579  -9.501  1.00  0.00     0.096 A 
ATOM      7  C11 UNK     1      46.397  10.197  -9.550  1.00  0.00     0.084 A 
ATOM      8  C12 UNK     1      47.438   9.338  -9.188  1.00  0.00     0.118 A 
ATOM      9  C13 UNK     1      45.098   9.663  -9.988  1.00  0.00     0.190 A 
ATOM     10  C14 UNK     1      44.365  11.968 -10.266  1.00  0.00     0.090 A 
ATOM     11  C15 UNK     1      44.072  10.661 -10.350  1.00  0.00     0.094 A 
ENDROOT
BRANCH   3  12
ATOM     12  O2  UNK     1      50.028  11.786  -8.323  1.00  0.00    -0.315 OA
BRANCH  12  13
ATOM     13  C4  UNK     1      50.125  12.174  -6.952  1.00  0.00     0.299 C 
ATOM     14  O1  UNK     1      49.746  11.084  -6.116  1.00  0.00    -0.340 OA
ATOM     15  C5  UNK     1      49.844  11.403  -4.732  1.00  0.00     0.253 C 
ATOM     16  C3  UNK     1      48.894  12.537  -4.364  1.00  0.00     0.189 C 
ATOM     17  C1  UNK     1      49.133  13.756  -5.255  1.00  0.00     0.183 C 
ATOM     18  C2  UNK     1      49.191  13.364  -6.731  1.00  0.00     0.205 C 
BRANCH  15  19
ATOM     19  C6  UNK     1      49.446  10.131  -4.057  1.00  0.00     0.172 C 
ATOM     20  O7  UNK     1      49.790   9.796  -2.933  1.00  0.00    -0.648 OA
BRANCH  19  21
ATOM     21  O6  UNK     1      48.650   9.389  -4.864  1.00  0.00    -0.774 OA
ATOM     22  H10 UNK     1      48.119   8.738  -4.358  1.00  0.00     0.167 HD
ENDBRANCH  19  21
ENDBRANCH  15  19
BRANCH  16  23
ATOM     23  O5  UNK     1      49.123  12.901  -3.004  1.00  0.00    -0.390 OA
ATOM     24  H8  UNK     1      49.804  13.596  -2.988  1.00  0.00     0.210 HD
ENDBRANCH  16  23
BRANCH  17  25
ATOM     25  O3  UNK     1      48.058  14.673  -5.047  1.00  0.00    -0.390 OA
ATOM     26  H6  UNK     1      48.379  15.561  -5.275  1.00  0.00     0.210 HD
ENDBRANCH  17  25
BRANCH  18  27
ATOM     27  O4  UNK     1      49.682  14.466  -7.495  1.00  0.00    -0.388 OA
ATOM     28  H7  UNK     1      50.615  14.289  -7.701  1.00  0.00     0.210 HD
ENDBRANCH  18  27
ENDBRANCH  12  13
ENDBRANCH   3  12
BRANCH   5  29
ATOM     29  O9  UNK     1      49.682   9.044  -8.418  1.00  0.00    -0.356 OA
ATOM     30  H12 UNK     1      49.361   8.126  -8.453  1.00  0.00     0.218 HD
ENDBRANCH   5  29
BRANCH   8  31
ATOM     31  O10 UNK     1      47.301   7.982  -9.223  1.00  0.00    -0.357 OA
ATOM     32  H13 UNK     1      46.747   7.712  -9.971  1.00  0.00     0.217 HD
ENDBRANCH   8  31
BRANCH  10  33
ATOM     33  C16 UNK     1      43.376  13.011 -10.607  1.00  0.00    -0.002 A 
ATOM     34  C17 UNK     1      42.213  12.673 -11.305  1.00  0.00     0.014 A 
ATOM     35  C19 UNK     1      41.279  13.658 -11.625  1.00  0.00     0.001 A 
ATOM     36  C21 UNK     1      41.502  14.982 -11.248  1.00  0.00     0.000 A 
ATOM     37  C20 UNK     1      42.662  15.322 -10.551  1.00  0.00     0.001 A 
ATOM     38  C18 UNK     1      43.597  14.337 -10.231  1.00  0.00     0.014 A 
ENDBRANCH  10  33
TORSDOF 10
ENDMDL
MODEL 13
REMARK VINA RESULT:      -4.1      2.155      8.144
REMARK  10 active torsions:
REMARK  status: ('A' for Active; 'I' for Inactive)
REMARK    1  A    between atoms: O2_2  and  C4_15 
REMARK    2  A    between atoms: O2_2  and  C7_18 
REMARK    3  A    between atoms: O3_3  and  C1_12 
REMARK    4  A    between atoms: O4_4  and  C2_13 
REMARK    5  A    between atoms: O5_5  and  C3_14 
REMARK    6  A    between atoms: O6_6  and  C6_17 
REMARK    7  A    between atoms: O9_9  and  C9_20 
REMARK    8  A    between atoms: O10_10  and  C12_23 
REMARK    9  A    between atoms: C5_16  and  C6_17 
REMARK   10  A    between atoms: C14_25  and  C16_27 
ROOT
ATOM      1  O8  UNK     1      48.647  10.002  -6.269  1.00  0.00    -0.309 OA
ATOM      2  O11 UNK     1      49.530  13.113  -8.748  1.00  0.00    -0.287 OA
ATOM      3  C7  UNK     1      47.426   8.592  -9.399  1.00  0.00     0.110 A 
ATOM      4  C8  UNK     1      47.750   8.738  -8.050  1.00  0.00     0.078 A 
ATOM      5  C9  UNK     1      47.703   9.619 -10.302  1.00  0.00     0.134 A 
ATOM      6  C10 UNK     1      48.353   9.916  -7.605  1.00  0.00     0.096 A 
ATOM      7  C11 UNK     1      48.628  10.941  -8.509  1.00  0.00     0.084 A 
ATOM      8  C12 UNK     1      48.305  10.798  -9.860  1.00  0.00     0.118 A 
ATOM      9  C13 UNK     1      49.262  12.172  -8.012  1.00  0.00     0.190 A 
ATOM     10  C14 UNK     1      49.253  11.158  -5.799  1.00  0.00     0.090 A 
ATOM     11  C15 UNK     1      49.563  12.214  -6.567  1.00  0.00     0.094 A 
ENDROOT
BRANCH   3  12
ATOM     12  O2  UNK     1      46.838   7.437  -9.824  1.00  0.00    -0.315 OA
BRANCH  12  13
ATOM     13  C4  UNK     1      45.645   7.574 -10.597  1.00  0.00     0.299 C 
ATOM     14  O1  UNK     1      44.908   8.709 -10.148  1.00  0.00    -0.340 OA
ATOM     15  C5  UNK     1      43.716   8.911 -10.898  1.00  0.00     0.253 C 
ATOM     16  C3  UNK     1      42.764   7.731 -10.741  1.00  0.00     0.189 C 
ATOM     17  C1  UNK     1      43.459   6.421 -11.108  1.00  0.00     0.183 C 
ATOM     18  C2  UNK     1      44.819   6.299 -10.419  1.00  0.00     0.205 C 
BRANCH  15  19
ATOM     19  C6  UNK     1      43.137  10.149 -10.295  1.00  0.00     0.172 C 
ATOM     20  O7  UNK     1      43.491  11.289 -10.557  1.00  0.00    -0.648 OA
BRANCH  19  21
ATOM     21  O6  UNK     1      42.160   9.839  -9.409  1.00  0.00    -0.774 OA
ATOM     22  H10 UNK     1      42.484   9.244  -8.699  1.00  0.00     0.167 HD
ENDBRANCH  19  21
ENDBRANCH  15  19
BRANCH  16  23
ATOM     23  O5  UNK     1      41.648   7.926 -11.609  1.00  0.00    -0.390 OA
ATOM     24  H8  UNK     1      41.519   8.883 -11.725  1.00  0.00     0.210 HD
ENDBRANCH  16  23
BRANCH  17  25
ATOM     25  O3  UNK     1      42.618   5.342 -10.695  1.00  0.00    -0.390 OA
ATOM     26  H6  UNK     1      42.352   5.510  -9.776  1.00  0.00     0.210 HD
ENDBRANCH  17  25
BRANCH  18  27
ATOM     27  O4  UNK     1      45.545   5.212 -10.993  1.00  0.00    -0.388 OA
ATOM     28  H7  UNK     1      46.393   5.561 -11.313  1.00  0.00     0.210 HD
ENDBRANCH  18  27
ENDBRANCH  12  13
ENDBRANCH   3  12
BRANCH   5  29
ATOM     29  O9  UNK     1      47.383   9.468 -11.620  1.00  0.00    -0.356 OA
ATOM     30  H12 UNK     1      48.158   9.109 -12.086  1.00  0.00     0.218 HD
ENDBRANCH   5  29
BRANCH   8  31
ATOM     31  O10 UNK     1      48.560  11.779 -10.772  1.00  0.00    -0.357 OA
ATOM     32  H13 UNK     1      48.414  12.655 -10.384  1.00  0.00     0.217 HD
ENDBRANCH   8  31
BRANCH  10  33
ATOM     33  C16 UNK     1      49.521  11.147  -4.347  1.00  0.00    -0.002 A 
ATOM     34  C17 UNK     1      49.423  12.328  -3.607  1.00  0.00     0.014 A 
ATOM     35  C19 UNK     1      49.676  12.318  -2.235  1.00  0.00     0.001 A 
ATOM     36  C21 UNK     1      50.026  11.127  -1.598  1.00  0.00     0.000 A 
ATOM     37  C20 UNK     1      50.125   9.946  -2.334  1.00  0.00     0.001 A 
ATOM     38  C18 UNK     1      49.872   9.957  -3.706  1.00  0.00     0.014 A 
ENDBRANCH  10  33
TORSDOF 10
ENDMDL
MODEL 14
REMARK VINA RESULT:      -4.1      2.899      6.973
REMARK  10 active torsions:
REMARK  status: ('A' for Active; 'I' for Inactive)
REMARK    1  A    between atoms: O2_2  and  C4_15 
REMARK    2  A    between atoms: O2_2  and  C7_18 
REMARK    3  A    between atoms: O3_3  and  C1_12 
REMARK    4  A    between atoms: O4_4  and  C2_13 
REMARK    5  A    between atoms: O5_5  and  C3_14 
REMARK    6  A    between atoms: O6_6  and  C6_17 
REMARK    7  A    between atoms: O9_9  and  C9_20 
REMARK    8  A    between atoms: O10_10  and  C12_23 
REMARK    9  A    between atoms: C5_16  and  C6_17 
REMARK   10  A    between atoms: C14_25  and  C16_27 
ROOT
ATOM      1  O8  UNK     1      47.725   9.893  -6.981  1.00  0.00    -0.309 OA
ATOM      2  O11 UNK     1      49.962   6.594  -7.826  1.00  0.00    -0.287 OA
ATOM      3  C7  UNK     1      45.983   8.786  -9.984  1.00  0.00     0.110 A 
ATOM      4  C8  UNK     1      46.339   9.527  -8.858  1.00  0.00     0.078 A 
ATOM      5  C9  UNK     1      46.708   7.644 -10.329  1.00  0.00     0.134 A 
ATOM      6  C10 UNK     1      47.422   9.124  -8.075  1.00  0.00     0.096 A 
ATOM      7  C11 UNK     1      48.145   7.983  -8.422  1.00  0.00     0.084 A 
ATOM      8  C12 UNK     1      47.791   7.238  -9.549  1.00  0.00     0.118 A 
ATOM      9  C13 UNK     1      49.283   7.582  -7.580  1.00  0.00     0.190 A 
ATOM     10  C14 UNK     1      48.792   9.512  -6.181  1.00  0.00     0.090 A 
ATOM     11  C15 UNK     1      49.565   8.440  -6.412  1.00  0.00     0.094 A 
ENDROOT
BRANCH   3  12
ATOM     12  O2  UNK     1      44.923   9.188 -10.742  1.00  0.00    -0.315 OA
BRANCH  12  13
ATOM     13  C4  UNK     1      44.993  10.504 -11.292  1.00  0.00     0.299 C 
ATOM     14  O1  UNK     1      46.293  11.047 -11.076  1.00  0.00    -0.340 OA
ATOM     15  C5  UNK     1      46.432  12.354 -11.624  1.00  0.00     0.253 C 
ATOM     16  C3  UNK     1      45.475  13.332 -10.954  1.00  0.00     0.189 C 
ATOM     17  C1  UNK     1      44.036  12.824 -11.034  1.00  0.00     0.183 C 
ATOM     18  C2  UNK     1      43.935  11.362 -10.597  1.00  0.00     0.205 C 
BRANCH  15  19
ATOM     19  C6  UNK     1      47.853  12.703 -11.323  1.00  0.00     0.172 C 
ATOM     20  O7  UNK     1      48.338  13.820 -11.428  1.00  0.00    -0.648 OA
BRANCH  19  21
ATOM     21  O6  UNK     1      48.540  11.608 -10.917  1.00  0.00    -0.774 OA
ATOM     22  H10 UNK     1      47.993  10.794 -10.964  1.00  0.00     0.167 HD
ENDBRANCH  19  21
ENDBRANCH  15  19
BRANCH  16  23
ATOM     23  O5  UNK     1      45.564  14.589 -11.623  1.00  0.00    -0.390 OA
ATOM     24  H8  UNK     1      46.364  14.581 -12.177  1.00  0.00     0.210 HD
ENDBRANCH  16  23
BRANCH  17  25
ATOM     25  O3  UNK     1      43.232  13.634 -10.174  1.00  0.00    -0.390 OA
ATOM     26  H6  UNK     1      43.308  13.276  -9.274  1.00  0.00     0.210 HD
ENDBRANCH  17  25
BRANCH  18  27
ATOM     27  O4  UNK     1      42.647  10.852 -10.943  1.00  0.00    -0.388 OA
ATOM     28  H7  UNK     1      42.780  10.096 -11.538  1.00  0.00     0.210 HD
ENDBRANCH  18  27
ENDBRANCH  12  13
ENDBRANCH   3  12
BRANCH   5  29
ATOM     29  O9  UNK     1      46.353   6.924 -11.433  1.00  0.00    -0.356 OA
ATOM     30  H12 UNK     1      46.412   7.505 -12.211  1.00  0.00     0.218 HD
ENDBRANCH   5  29
BRANCH   8  31
ATOM     31  O10 UNK     1      48.474   6.117  -9.917  1.00  0.00    -0.357 OA
ATOM     32  H13 UNK     1      49.389   6.153  -9.600  1.00  0.00     0.217 HD
ENDBRANCH   8  31
BRANCH  10  33
ATOM     33  C16 UNK     1      49.032  10.412  -5.034  1.00  0.00    -0.002 A 
ATOM     34  C17 UNK     1      48.399  11.656  -4.973  1.00  0.00     0.014 A 
ATOM     35  C19 UNK     1      48.626  12.504  -3.889  1.00  0.00     0.001 A 
ATOM     36  C21 UNK     1      49.485  12.112  -2.863  1.00  0.00     0.000 A 
ATOM     37  C20 UNK     1      50.118  10.870  -2.920  1.00  0.00     0.001 A 
ATOM     38  C18 UNK     1      49.892  10.022  -4.004  1.00  0.00     0.014 A 
ENDBRANCH  10  33
TORSDOF 10
ENDMDL
MODEL 15
REMARK VINA RESULT:      -3.8      2.481      3.143
REMARK  10 active torsions:
REMARK  status: ('A' for Active; 'I' for Inactive)
REMARK    1  A    between atoms: O2_2  and  C4_15 
REMARK    2  A    between atoms: O2_2  and  C7_18 
REMARK    3  A    between atoms: O3_3  and  C1_12 
REMARK    4  A    between atoms: O4_4  and  C2_13 
REMARK    5  A    between atoms: O5_5  and  C3_14 
REMARK    6  A    between atoms: O6_6  and  C6_17 
REMARK    7  A    between atoms: O9_9  and  C9_20 
REMARK    8  A    between atoms: O10_10  and  C12_23 
REMARK    9  A    between atoms: C5_16  and  C6_17 
REMARK   10  A    between atoms: C14_25  and  C16_27 
ROOT
ATOM      1  O8  UNK     1      45.731  11.521  -9.546  1.00  0.00    -0.309 OA
ATOM      2  O11 UNK     1      45.576   8.013 -11.612  1.00  0.00    -0.287 OA
ATOM      3  C7  UNK     1      48.129   9.605  -7.582  1.00  0.00     0.110 A 
ATOM      4  C8  UNK     1      47.320  10.648  -8.033  1.00  0.00     0.078 A 
ATOM      5  C9  UNK     1      48.124   8.377  -8.246  1.00  0.00     0.134 A 
ATOM      6  C10 UNK     1      46.505  10.460  -9.150  1.00  0.00     0.096 A 
ATOM      7  C11 UNK     1      46.502   9.233  -9.811  1.00  0.00     0.084 A 
ATOM      8  C12 UNK     1      47.311   8.187  -9.363  1.00  0.00     0.118 A 
ATOM      9  C13 UNK     1      45.632   9.063 -10.985  1.00  0.00     0.190 A 
ATOM     10  C14 UNK     1      44.916  11.366 -10.657  1.00  0.00     0.090 A 
ATOM     11  C15 UNK     1      44.821  10.235 -11.373  1.00  0.00     0.094 A 
ENDROOT
BRANCH   3  12
ATOM     12  O2  UNK     1      48.922   9.798  -6.490  1.00  0.00    -0.315 OA
BRANCH  12  13
ATOM     13  C4  UNK     1      48.552  10.862  -5.611  1.00  0.00     0.299 C 
ATOM     14  O1  UNK     1      48.809  12.116  -6.239  1.00  0.00    -0.340 OA
ATOM     15  C5  UNK     1      48.439  13.218  -5.418  1.00  0.00     0.253 C 
ATOM     16  C3  UNK     1      49.256  13.242  -4.132  1.00  0.00     0.189 C 
ATOM     17  C1  UNK     1      49.141  11.909  -3.392  1.00  0.00     0.183 C 
ATOM     18  C2  UNK     1      49.380  10.727  -4.332  1.00  0.00     0.205 C 
BRANCH  15  19
ATOM     19  C6  UNK     1      48.752  14.403  -6.273  1.00  0.00     0.172 C 
ATOM     20  O7  UNK     1      49.335  14.360  -7.346  1.00  0.00    -0.648 OA
BRANCH  19  21
ATOM     21  O6  UNK     1      48.301  15.543  -5.694  1.00  0.00    -0.774 OA
ATOM     22  H10 UNK     1      48.786  15.750  -4.867  1.00  0.00     0.167 HD
ENDBRANCH  19  21
ENDBRANCH  15  19
BRANCH  16  23
ATOM     23  O5  UNK     1      48.759  14.284  -3.294  1.00  0.00    -0.390 OA
ATOM     24  H8  UNK     1      47.788  14.284  -3.356  1.00  0.00     0.210 HD
ENDBRANCH  16  23
BRANCH  17  25
ATOM     25  O3  UNK     1      50.120  11.895  -2.352  1.00  0.00    -0.390 OA
ATOM     26  H6  UNK     1      49.674  11.632  -1.530  1.00  0.00     0.210 HD
ENDBRANCH  17  25
BRANCH  18  27
ATOM     27  O4  UNK     1      48.998   9.517  -3.678  1.00  0.00    -0.388 OA
ATOM     28  H7  UNK     1      49.740   8.894  -3.754  1.00  0.00     0.210 HD
ENDBRANCH  18  27
ENDBRANCH  12  13
ENDBRANCH   3  12
BRANCH   5  29
ATOM     29  O9  UNK     1      48.919   7.362  -7.798  1.00  0.00    -0.356 OA
ATOM     30  H12 UNK     1      48.403   6.818  -7.178  1.00  0.00     0.218 HD
ENDBRANCH   5  29
BRANCH   8  31
ATOM     31  O10 UNK     1      47.333   6.974  -9.985  1.00  0.00    -0.357 OA
ATOM     32  H13 UNK     1      47.494   6.263  -9.346  1.00  0.00     0.217 HD
ENDBRANCH   8  31
BRANCH  10  33
ATOM     33  C16 UNK     1      44.124  12.567 -10.992  1.00  0.00    -0.002 A 
ATOM     34  C17 UNK     1      42.737  12.474 -11.137  1.00  0.00     0.014 A 
ATOM     35  C19 UNK     1      41.988  13.609 -11.452  1.00  0.00     0.001 A 
ATOM     36  C21 UNK     1      42.623  14.838 -11.623  1.00  0.00     0.000 A 
ATOM     37  C20 UNK     1      44.008  14.935 -11.480  1.00  0.00     0.001 A 
ATOM     38  C18 UNK     1      44.756  13.800 -11.165  1.00  0.00     0.014 A 
ENDBRANCH  10  33
TORSDOF 10
ENDMDL
MODEL 16
REMARK VINA RESULT:      -3.8      1.294      2.445
REMARK  10 active torsions:
REMARK  status: ('A' for Active; 'I' for Inactive)
REMARK    1  A    between atoms: O2_2  and  C4_15 
REMARK    2  A    between atoms: O2_2  and  C7_18 
REMARK    3  A    between atoms: O3_3  and  C1_12 
REMARK    4  A    between atoms: O4_4  and  C2_13 
REMARK    5  A    between atoms: O5_5  and  C3_14 
REMARK    6  A    between atoms: O6_6  and  C6_17 
REMARK    7  A    between atoms: O9_9  and  C9_20 
REMARK    8  A    between atoms: O10_10  and  C12_23 
REMARK    9  A    between atoms: C5_16  and  C6_17 
REMARK   10  A    between atoms: C14_25  and  C16_27 
ROOT
ATOM      1  O8  UNK     1      45.146   9.097  -9.182  1.00  0.00    -0.309 OA
ATOM      2  O11 UNK     1      46.798   6.280 -11.618  1.00  0.00    -0.287 OA
ATOM      3  C7  UNK     1      48.272   8.565  -7.387  1.00  0.00     0.110 A 
ATOM      4  C8  UNK     1      47.015   9.055  -7.739  1.00  0.00     0.078 A 
ATOM      5  C9  UNK     1      48.895   7.599  -8.180  1.00  0.00     0.134 A 
ATOM      6  C10 UNK     1      46.381   8.578  -8.888  1.00  0.00     0.096 A 
ATOM      7  C11 UNK     1      47.004   7.614  -9.677  1.00  0.00     0.084 A 
ATOM      8  C12 UNK     1      48.263   7.120  -9.327  1.00  0.00     0.118 A 
ATOM      9  C13 UNK     1      46.312   7.127 -10.880  1.00  0.00     0.190 A 
ATOM     10  C14 UNK     1      44.495   8.647 -10.321  1.00  0.00     0.090 A 
ATOM     11  C15 UNK     1      44.988   7.720 -11.156  1.00  0.00     0.094 A 
ENDROOT
BRANCH   3  12
ATOM     12  O2  UNK     1      48.884   9.038  -6.264  1.00  0.00    -0.315 OA
BRANCH  12  13
ATOM     13  C4  UNK     1      49.405  10.366  -6.330  1.00  0.00     0.299 C 
ATOM     14  O1  UNK     1      48.677  11.214  -5.446  1.00  0.00    -0.340 OA
ATOM     15  C5  UNK     1      49.167  12.550  -5.451  1.00  0.00     0.253 C 
ATOM     16  C3  UNK     1      49.011  13.184  -6.829  1.00  0.00     0.189 C 
ATOM     17  C1  UNK     1      49.678  12.322  -7.901  1.00  0.00     0.183 C 
ATOM     18  C2  UNK     1      49.266  10.855  -7.772  1.00  0.00     0.205 C 
BRANCH  15  19
ATOM     19  C6  UNK     1      48.302  13.237  -4.446  1.00  0.00     0.172 C 
ATOM     20  O7  UNK     1      48.134  14.445  -4.373  1.00  0.00    -0.648 OA
BRANCH  19  21
ATOM     21  O6  UNK     1      47.726  12.335  -3.614  1.00  0.00    -0.774 OA
ATOM     22  H10 UNK     1      47.432  12.746  -2.773  1.00  0.00     0.167 HD
ENDBRANCH  19  21
ENDBRANCH  15  19
BRANCH  16  23
ATOM     23  O5  UNK     1      49.631  14.469  -6.813  1.00  0.00    -0.390 OA
ATOM     24  H8  UNK     1      50.443  14.419  -7.345  1.00  0.00     0.210 HD
ENDBRANCH  16  23
BRANCH  17  25
ATOM     25  O3  UNK     1      49.279  12.819  -9.179  1.00  0.00    -0.390 OA
ATOM     26  H6  UNK     1      48.618  13.516  -9.032  1.00  0.00     0.210 HD
ENDBRANCH  17  25
BRANCH  18  27
ATOM     27  O4  UNK     1      50.108  10.052  -8.601  1.00  0.00    -0.388 OA
ATOM     28  H7  UNK     1      50.402   9.292  -8.072  1.00  0.00     0.210 HD
ENDBRANCH  18  27
ENDBRANCH  12  13
ENDBRANCH   3  12
BRANCH   5  29
ATOM     29  O9  UNK     1      50.125   7.124  -7.828  1.00  0.00    -0.356 OA
ATOM     30  H12 UNK     1      50.002   6.359  -7.238  1.00  0.00     0.218 HD
ENDBRANCH   5  29
BRANCH   8  31
ATOM     31  O10 UNK     1      48.902   6.177 -10.076  1.00  0.00    -0.357 OA
ATOM     32  H13 UNK     1      48.767   5.292  -9.703  1.00  0.00     0.217 HD
ENDBRANCH   8  31
BRANCH  10  33
ATOM     33  C16 UNK     1      43.173   9.268 -10.541  1.00  0.00    -0.002 A 
ATOM     34  C17 UNK     1      43.058  10.413 -11.333  1.00  0.00     0.014 A 
ATOM     35  C19 UNK     1      41.809  10.998 -11.542  1.00  0.00     0.001 A 
ATOM     36  C21 UNK     1      40.671  10.441 -10.960  1.00  0.00     0.000 A 
ATOM     37  C20 UNK     1      40.782   9.297 -10.168  1.00  0.00     0.001 A 
ATOM     38  C18 UNK     1      42.031   8.712  -9.959  1.00  0.00     0.014 A 
ENDBRANCH  10  33
TORSDOF 10
ENDMDL
MODEL 17
REMARK VINA RESULT:      -3.8      2.597      5.084
REMARK  10 active torsions:
REMARK  status: ('A' for Active; 'I' for Inactive)
REMARK    1  A    between atoms: O2_2  and  C4_15 
REMARK    2  A    between atoms: O2_2  and  C7_18 
REMARK    3  A    between atoms: O3_3  and  C1_12 
REMARK    4  A    between atoms: O4_4  and  C2_13 
REMARK    5  A    between atoms: O5_5  and  C3_14 
REMARK    6  A    between atoms: O6_6  and  C6_17 
REMARK    7  A    between atoms: O9_9  and  C9_20 
REMARK    8  A    between atoms: O10_10  and  C12_23 
REMARK    9  A    between atoms: C5_16  and  C6_17 
REMARK   10  A    between atoms: C14_25  and  C16_27 
ROOT
ATOM      1  O8  UNK     1      44.997   9.672 -10.095  1.00  0.00    -0.309 OA
ATOM      2  O11 UNK     1      44.100  13.340 -11.625  1.00  0.00    -0.287 OA
ATOM      3  C7  UNK     1      48.371  11.033 -10.310  1.00  0.00     0.110 A 
ATOM      4  C8  UNK     1      47.307  10.164 -10.070  1.00  0.00     0.078 A 
ATOM      5  C9  UNK     1      48.131  12.305 -10.832  1.00  0.00     0.134 A 
ATOM      6  C10 UNK     1      46.001  10.570 -10.352  1.00  0.00     0.096 A 
ATOM      7  C11 UNK     1      45.765  11.840 -10.874  1.00  0.00     0.084 A 
ATOM      8  C12 UNK     1      46.828  12.714 -11.116  1.00  0.00     0.118 A 
ATOM      9  C13 UNK     1      44.380  12.241 -11.164  1.00  0.00     0.190 A 
ATOM     10  C14 UNK     1      43.689  10.050 -10.359  1.00  0.00     0.090 A 
ATOM     11  C15 UNK     1      43.335  11.241 -10.866  1.00  0.00     0.094 A 
ENDROOT
BRANCH   3  12
ATOM     12  O2  UNK     1      49.642  10.627 -10.031  1.00  0.00    -0.315 OA
BRANCH  12  13
ATOM     13  C4  UNK     1      49.777   9.427  -9.269  1.00  0.00     0.299 C 
ATOM     14  O1  UNK     1      49.067   8.369  -9.908  1.00  0.00    -0.340 OA
ATOM     15  C5  UNK     1      49.183   7.136  -9.205  1.00  0.00     0.253 C 
ATOM     16  C3  UNK     1      48.573   7.241  -7.813  1.00  0.00     0.189 C 
ATOM     17  C1  UNK     1      49.187   8.406  -7.038  1.00  0.00     0.183 C 
ATOM     18  C2  UNK     1      49.204   9.686  -7.875  1.00  0.00     0.205 C 
BRANCH  15  19
ATOM     19  C6  UNK     1      48.413   6.181 -10.057  1.00  0.00     0.172 C 
ATOM     20  O7  UNK     1      48.307   4.982  -9.848  1.00  0.00    -0.648 OA
BRANCH  19  21
ATOM     21  O6  UNK     1      47.844   6.826 -11.105  1.00  0.00    -0.774 OA
ATOM     22  H10 UNK     1      46.896   6.593 -11.208  1.00  0.00     0.167 HD
ENDBRANCH  19  21
ENDBRANCH  15  19
BRANCH  16  23
ATOM     23  O5  UNK     1      48.828   6.027  -7.109  1.00  0.00    -0.390 OA
ATOM     24  H8  UNK     1      48.428   6.100  -6.226  1.00  0.00     0.210 HD
ENDBRANCH  16  23
BRANCH  17  25
ATOM     25  O3  UNK     1      48.403   8.617  -5.862  1.00  0.00    -0.390 OA
ATOM     26  H6  UNK     1      48.954   9.097  -5.222  1.00  0.00     0.210 HD
ENDBRANCH  17  25
BRANCH  18  27
ATOM     27  O4  UNK     1      50.021  10.663  -7.230  1.00  0.00    -0.388 OA
ATOM     28  H7  UNK     1      50.899  10.634  -7.646  1.00  0.00     0.210 HD
ENDBRANCH  18  27
ENDBRANCH  12  13
ENDBRANCH   3  12
BRANCH   5  29
ATOM     29  O9  UNK     1      49.178  13.150 -11.065  1.00  0.00    -0.356 OA
ATOM     30  H12 UNK     1      49.209  13.807 -10.348  1.00  0.00     0.218 HD
ENDBRANCH   5  29
BRANCH   8  31
ATOM     31  O10 UNK     1      46.635  13.963 -11.625  1.00  0.00    -0.357 OA
ATOM     32  H13 UNK     1      46.357  14.579 -10.930  1.00  0.00     0.217 HD
ENDBRANCH   8  31
BRANCH  10  33
ATOM     33  C16 UNK     1      42.689   9.008 -10.051  1.00  0.00    -0.002 A 
ATOM     34  C17 UNK     1      41.374   9.367  -9.745  1.00  0.00     0.014 A 
ATOM     35  C19 UNK     1      40.429   8.382  -9.455  1.00  0.00     0.001 A 
ATOM     36  C21 UNK     1      40.796   7.036  -9.471  1.00  0.00     0.000 A 
ATOM     37  C20 UNK     1      42.108   6.675  -9.776  1.00  0.00     0.001 A 
ATOM     38  C18 UNK     1      43.053   7.659 -10.066  1.00  0.00     0.014 A 
ENDBRANCH  10  33
TORSDOF 10
ENDMDL
MODEL 18
REMARK VINA RESULT:      -3.7      3.616      5.539
REMARK  10 active torsions:
REMARK  status: ('A' for Active; 'I' for Inactive)
REMARK    1  A    between atoms: O2_2  and  C4_15 
REMARK    2  A    between atoms: O2_2  and  C7_18 
REMARK    3  A    between atoms: O3_3  and  C1_12 
REMARK    4  A    between atoms: O4_4  and  C2_13 
REMARK    5  A    between atoms: O5_5  and  C3_14 
REMARK    6  A    between atoms: O6_6  and  C6_17 
REMARK    7  A    between atoms: O9_9  and  C9_20 
REMARK    8  A    between atoms: O10_10  and  C12_23 
REMARK    9  A    between atoms: C5_16  and  C6_17 
REMARK   10  A    between atoms: C14_25  and  C16_27 
ROOT
ATOM      1  O8  UNK     1      45.502  12.709 -10.902  1.00  0.00    -0.309 OA
ATOM      2  O11 UNK     1      42.640   9.863 -11.462  1.00  0.00    -0.287 OA
ATOM      3  C7  UNK     1      47.662   9.789 -11.198  1.00  0.00     0.110 A 
ATOM      4  C8  UNK     1      47.230  11.105 -11.034  1.00  0.00     0.078 A 
ATOM      5  C9  UNK     1      46.733   8.766 -11.395  1.00  0.00     0.134 A 
ATOM      6  C10 UNK     1      45.866  11.397 -11.069  1.00  0.00     0.096 A 
ATOM      7  C11 UNK     1      44.940  10.374 -11.266  1.00  0.00     0.084 A 
ATOM      8  C12 UNK     1      45.368   9.055 -11.430  1.00  0.00     0.118 A 
ATOM      9  C13 UNK     1      43.508  10.710 -11.296  1.00  0.00     0.190 A 
ATOM     10  C14 UNK     1      44.153  13.030 -10.939  1.00  0.00     0.090 A 
ATOM     11  C15 UNK     1      43.168  12.136 -11.116  1.00  0.00     0.094 A 
ENDROOT
BRANCH   3  12
ATOM     12  O2  UNK     1      48.997   9.514 -11.163  1.00  0.00    -0.315 OA
BRANCH  12  13
ATOM     13  C4  UNK     1      49.599   9.429  -9.870  1.00  0.00     0.299 C 
ATOM     14  O1  UNK     1      48.989   8.379  -9.123  1.00  0.00    -0.340 OA
ATOM     15  C5  UNK     1      49.564   8.231  -7.830  1.00  0.00     0.253 C 
ATOM     16  C3  UNK     1      49.358   9.487  -6.992  1.00  0.00     0.189 C 
ATOM     17  C1  UNK     1      49.893  10.719  -7.721  1.00  0.00     0.183 C 
ATOM     18  C2  UNK     1      49.395  10.771  -9.166  1.00  0.00     0.205 C 
BRANCH  15  19
ATOM     19  C6  UNK     1      48.815   7.074  -7.253  1.00  0.00     0.172 C 
ATOM     20  O7  UNK     1      49.008   5.901  -7.537  1.00  0.00    -0.648 OA
BRANCH  19  21
ATOM     21  O6  UNK     1      47.883   7.501  -6.366  1.00  0.00    -0.774 OA
ATOM     22  H10 UNK     1      47.357   8.249  -6.719  1.00  0.00     0.167 HD
ENDBRANCH  19  21
ENDBRANCH  15  19
BRANCH  16  23
ATOM     23  O5  UNK     1      50.060   9.334  -5.759  1.00  0.00    -0.390 OA
ATOM     24  H8  UNK     1      50.472   8.453  -5.754  1.00  0.00     0.210 HD
ENDBRANCH  16  23
BRANCH  17  25
ATOM     25  O3  UNK     1      49.442  11.879  -7.020  1.00  0.00    -0.390 OA
ATOM     26  H6  UNK     1      48.645  12.205  -7.469  1.00  0.00     0.210 HD
ENDBRANCH  17  25
BRANCH  18  27
ATOM     27  O4  UNK     1      50.125  11.768  -9.883  1.00  0.00    -0.388 OA
ATOM     28  H7  UNK     1      50.018  12.609  -9.408  1.00  0.00     0.210 HD
ENDBRANCH  18  27
ENDBRANCH  12  13
ENDBRANCH   3  12
BRANCH   5  29
ATOM     29  O9  UNK     1      47.164   7.481 -11.554  1.00  0.00    -0.356 OA
ATOM     30  H12 UNK     1      46.405   6.933 -11.821  1.00  0.00     0.218 HD
ENDBRANCH   5  29
BRANCH   8  31
ATOM     31  O10 UNK     1      44.492   8.029 -11.625  1.00  0.00    -0.357 OA
ATOM     32  H13 UNK     1      44.686   7.293 -11.026  1.00  0.00     0.217 HD
ENDBRANCH   8  31
BRANCH  10  33
ATOM     33  C16 UNK     1      43.873  14.467 -10.744  1.00  0.00    -0.002 A 
ATOM     34  C17 UNK     1      44.407  15.412 -11.625  1.00  0.00     0.014 A 
ATOM     35  C19 UNK     1      44.141  16.769 -11.441  1.00  0.00     0.001 A 
ATOM     36  C21 UNK     1      43.341  17.186 -10.378  1.00  0.00     0.000 A 
ATOM     37  C20 UNK     1      42.806  16.245  -9.497  1.00  0.00     0.001 A 
ATOM     38  C18 UNK     1      43.072  14.888  -9.680  1.00  0.00     0.014 A 
ENDBRANCH  10  33
TORSDOF 10
ENDMDL
