MODEL 1
REMARK VINA RESULT:      -7.0      0.000      0.000
REMARK  10 active torsions:
REMARK  status: ('A' for Active; 'I' for Inactive)
REMARK    1  A    between atoms: O2_2  and  C4_15 
REMARK    2  A    between atoms: O2_2  and  C7_18 
REMARK    3  A    between atoms: O3_3  and  C1_12 
REMARK    4  A    between atoms: O4_4  and  C2_13 
REMARK    5  A    between atoms: O5_5  and  C3_14 
REMARK    6  A    between atoms: O6_6  and  C6_17 
REMARK    7  A    between atoms: O9_9  and  C9_20 
REMARK    8  A    between atoms: O10_10  and  C12_23 
REMARK    9  A    between atoms: C5_16  and  C6_17 
REMARK   10  A    between atoms: C14_25  and  C16_27 
ROOT
ATOM      1  O8  UNK     1      45.113  12.904 -10.751  1.00  0.00    -0.309 OA
ATOM      2  O11 UNK     1      42.658   9.657 -10.914  1.00  0.00    -0.287 OA
ATOM      3  C7  UNK     1      47.021  10.648  -8.618  1.00  0.00     0.110 A 
ATOM      4  C8  UNK     1      46.632  11.780  -9.335  1.00  0.00     0.078 A 
ATOM      5  C9  UNK     1      46.226   9.502  -8.633  1.00  0.00     0.134 A 
ATOM      6  C10 UNK     1      45.444  11.762 -10.068  1.00  0.00     0.096 A 
ATOM      7  C11 UNK     1      44.651  10.616 -10.080  1.00  0.00     0.084 A 
ATOM      8  C12 UNK     1      45.038   9.481  -9.364  1.00  0.00     0.118 A 
ATOM      9  C13 UNK     1      43.403  10.626 -10.859  1.00  0.00     0.190 A 
ATOM     10  C14 UNK     1      43.942  12.914 -11.494  1.00  0.00     0.090 A 
ATOM     11  C15 UNK     1      43.094  11.877 -11.581  1.00  0.00     0.094 A 
ENDROOT
BRANCH   3  12
ATOM     12  O2  UNK     1      48.184  10.675  -7.906  1.00  0.00    -0.315 OA
BRANCH  12  13
ATOM     13  C4  UNK     1      48.100  11.151  -6.562  1.00  0.00     0.299 C 
ATOM     14  O1  UNK     1      48.566  12.497  -6.498  1.00  0.00    -0.340 OA
ATOM     15  C5  UNK     1      48.485  13.036  -5.184  1.00  0.00     0.253 C 
ATOM     16  C3  UNK     1      49.374  12.260  -4.218  1.00  0.00     0.189 C 
ATOM     17  C1  UNK     1      49.038  10.769  -4.251  1.00  0.00     0.183 C 
ATOM     18  C2  UNK     1      48.965  10.246  -5.686  1.00  0.00     0.205 C 
BRANCH  15  19
ATOM     19  C6  UNK     1      48.977  14.436  -5.356  1.00  0.00     0.172 C 
ATOM     20  O7  UNK     1      48.678  15.379  -4.638  1.00  0.00    -0.648 OA
BRANCH  19  21
ATOM     21  O6  UNK     1      49.805  14.525  -6.425  1.00  0.00    -0.774 OA
ATOM     22  H10 UNK     1      50.436  13.775  -6.464  1.00  0.00     0.167 HD
ENDBRANCH  19  21
ENDBRANCH  15  19
BRANCH  16  23
ATOM     23  O5  UNK     1      49.158  12.758  -2.899  1.00  0.00    -0.390 OA
ATOM     24  H8  UNK     1      48.842  12.022  -2.347  1.00  0.00     0.210 HD
ENDBRANCH  16  23
BRANCH  17  25
ATOM     25  O3  UNK     1      50.060  10.070  -3.540  1.00  0.00    -0.390 OA
ATOM     26  H6  UNK     1      49.995  10.322  -2.604  1.00  0.00     0.210 HD
ENDBRANCH  17  25
BRANCH  18  27
ATOM     27  O4  UNK     1      48.388   8.940  -5.685  1.00  0.00    -0.388 OA
ATOM     28  H7  UNK     1      47.767   8.893  -4.939  1.00  0.00     0.210 HD
ENDBRANCH  18  27
ENDBRANCH  12  13
ENDBRANCH   3  12
BRANCH   5  29
ATOM     29  O9  UNK     1      46.614   8.399  -7.929  1.00  0.00    -0.356 OA
ATOM     30  H12 UNK     1      47.157   7.838  -8.510  1.00  0.00     0.218 HD
ENDBRANCH   5  29
BRANCH   8  31
ATOM     31  O10 UNK     1      44.288   8.343  -9.354  1.00  0.00    -0.357 OA
ATOM     32  H13 UNK     1      44.735   7.632  -9.837  1.00  0.00     0.217 HD
ENDBRANCH   8  31
BRANCH  10  33
ATOM     33  C16 UNK     1      43.681  14.193 -12.185  1.00  0.00    -0.002 A 
ATOM     34  C17 UNK     1      44.291  15.368 -11.741  1.00  0.00     0.014 A 
ATOM     35  C19 UNK     1      44.044  16.576 -12.395  1.00  0.00     0.001 A 
ATOM     36  C21 UNK     1      43.188  16.612 -13.495  1.00  0.00     0.000 A 
ATOM     37  C20 UNK     1      42.577  15.439 -13.942  1.00  0.00     0.001 A 
ATOM     38  C18 UNK     1      42.824  14.232 -13.288  1.00  0.00     0.014 A 
ENDBRANCH  10  33
TORSDOF 10
ENDMDL
MODEL 2
REMARK VINA RESULT:      -6.5      2.251      4.289
REMARK  10 active torsions:
REMARK  status: ('A' for Active; 'I' for Inactive)
REMARK    1  A    between atoms: O2_2  and  C4_15 
REMARK    2  A    between atoms: O2_2  and  C7_18 
REMARK    3  A    between atoms: O3_3  and  C1_12 
REMARK    4  A    between atoms: O4_4  and  C2_13 
REMARK    5  A    between atoms: O5_5  and  C3_14 
REMARK    6  A    between atoms: O6_6  and  C6_17 
REMARK    7  A    between atoms: O9_9  and  C9_20 
REMARK    8  A    between atoms: O10_10  and  C12_23 
REMARK    9  A    between atoms: C5_16  and  C6_17 
REMARK   10  A    between atoms: C14_25  and  C16_27 
ROOT
ATOM      1  O8  UNK     1      44.781   9.704  -9.359  1.00  0.00    -0.309 OA
ATOM      2  O11 UNK     1      44.953  12.405 -12.404  1.00  0.00    -0.287 OA
ATOM      3  C7  UNK     1      48.110  11.047  -8.732  1.00  0.00     0.110 A 
ATOM      4  C8  UNK     1      46.944  10.290  -8.616  1.00  0.00     0.078 A 
ATOM      5  C9  UNK     1      48.232  11.992  -9.753  1.00  0.00     0.134 A 
ATOM      6  C10 UNK     1      45.900  10.478  -9.523  1.00  0.00     0.096 A 
ATOM      7  C11 UNK     1      46.026  11.421 -10.541  1.00  0.00     0.084 A 
ATOM      8  C12 UNK     1      47.191  12.182 -10.661  1.00  0.00     0.118 A 
ATOM      9  C13 UNK     1      44.911  11.598 -11.485  1.00  0.00     0.190 A 
ATOM     10  C14 UNK     1      43.725   9.874 -10.241  1.00  0.00     0.090 A 
ATOM     11  C15 UNK     1      43.727  10.744 -11.263  1.00  0.00     0.094 A 
ENDROOT
BRANCH   3  12
ATOM     12  O2  UNK     1      49.124  10.856  -7.840  1.00  0.00    -0.315 OA
BRANCH  12  13
ATOM     13  C4  UNK     1      48.817  11.085  -6.464  1.00  0.00     0.299 C 
ATOM     14  O1  UNK     1      49.090  12.443  -6.130  1.00  0.00    -0.340 OA
ATOM     15  C5  UNK     1      48.782  12.739  -4.772  1.00  0.00     0.253 C 
ATOM     16  C3  UNK     1      49.643  11.914  -3.823  1.00  0.00     0.189 C 
ATOM     17  C1  UNK     1      49.513  10.423  -4.131  1.00  0.00     0.183 C 
ATOM     18  C2  UNK     1      49.683  10.145  -5.625  1.00  0.00     0.205 C 
BRANCH  15  19
ATOM     19  C6  UNK     1      49.101  14.194  -4.657  1.00  0.00     0.172 C 
ATOM     20  O7  UNK     1      49.798  14.824  -5.438  1.00  0.00    -0.648 OA
BRANCH  19  21
ATOM     21  O6  UNK     1      48.512  14.727  -3.558  1.00  0.00    -0.774 OA
ATOM     22  H10 UNK     1      47.945  14.076  -3.093  1.00  0.00     0.167 HD
ENDBRANCH  19  21
ENDBRANCH  15  19
BRANCH  16  23
ATOM     23  O5  UNK     1      49.207  12.153  -2.486  1.00  0.00    -0.390 OA
ATOM     24  H8  UNK     1      49.700  12.917  -2.140  1.00  0.00     0.210 HD
ENDBRANCH  16  23
BRANCH  17  25
ATOM     25  O3  UNK     1      50.527   9.730  -3.400  1.00  0.00    -0.390 OA
ATOM     26  H6  UNK     1      50.144   8.897  -3.081  1.00  0.00     0.210 HD
ENDBRANCH  17  25
BRANCH  18  27
ATOM     27  O4  UNK     1      49.288   8.802  -5.905  1.00  0.00    -0.388 OA
ATOM     28  H7  UNK     1      48.724   8.502  -5.173  1.00  0.00     0.210 HD
ENDBRANCH  18  27
ENDBRANCH  12  13
ENDBRANCH   3  12
BRANCH   5  29
ATOM     29  O9  UNK     1      49.376  12.729  -9.859  1.00  0.00    -0.356 OA
ATOM     30  H12 UNK     1      49.514  13.206  -9.023  1.00  0.00     0.218 HD
ENDBRANCH   5  29
BRANCH   8  31
ATOM     31  O10 UNK     1      47.348  13.113 -11.644  1.00  0.00    -0.357 OA
ATOM     32  H13 UNK     1      48.216  13.024 -12.067  1.00  0.00     0.217 HD
ENDBRANCH   8  31
BRANCH  10  33
ATOM     33  C16 UNK     1      42.573   8.989  -9.976  1.00  0.00    -0.002 A 
ATOM     34  C17 UNK     1      42.764   7.611  -9.835  1.00  0.00     0.014 A 
ATOM     35  C19 UNK     1      41.676   6.775  -9.584  1.00  0.00     0.001 A 
ATOM     36  C21 UNK     1      40.394   7.312  -9.473  1.00  0.00     0.000 A 
ATOM     37  C20 UNK     1      40.199   8.687  -9.613  1.00  0.00     0.001 A 
ATOM     38  C18 UNK     1      41.287   9.523  -9.864  1.00  0.00     0.014 A 
ENDBRANCH  10  33
TORSDOF 10
ENDMDL
MODEL 3
REMARK VINA RESULT:      -6.3      1.277      1.821
REMARK  10 active torsions:
REMARK  status: ('A' for Active; 'I' for Inactive)
REMARK    1  A    between atoms: O2_2  and  C4_15 
REMARK    2  A    between atoms: O2_2  and  C7_18 
REMARK    3  A    between atoms: O3_3  and  C1_12 
REMARK    4  A    between atoms: O4_4  and  C2_13 
REMARK    5  A    between atoms: O5_5  and  C3_14 
REMARK    6  A    between atoms: O6_6  and  C6_17 
REMARK    7  A    between atoms: O9_9  and  C9_20 
REMARK    8  A    between atoms: O10_10  and  C12_23 
REMARK    9  A    between atoms: C5_16  and  C6_17 
REMARK   10  A    between atoms: C14_25  and  C16_27 
ROOT
ATOM      1  O8  UNK     1      44.641  11.545 -10.418  1.00  0.00    -0.309 OA
ATOM      2  O11 UNK     1      43.860   7.640 -11.282  1.00  0.00    -0.287 OA
ATOM      3  C7  UNK     1      47.504  10.017  -8.759  1.00  0.00     0.110 A 
ATOM      4  C8  UNK     1      46.603  10.969  -9.236  1.00  0.00     0.078 A 
ATOM      5  C9  UNK     1      47.295   8.662  -9.021  1.00  0.00     0.134 A 
ATOM      6  C10 UNK     1      45.492  10.564  -9.977  1.00  0.00     0.096 A 
ATOM      7  C11 UNK     1      45.286   9.210 -10.237  1.00  0.00     0.084 A 
ATOM      8  C12 UNK     1      46.185   8.253  -9.761  1.00  0.00     0.118 A 
ATOM      9  C13 UNK     1      44.105   8.810 -11.018  1.00  0.00     0.190 A 
ATOM     10  C14 UNK     1      43.533  11.172 -11.163  1.00  0.00     0.090 A 
ATOM     11  C15 UNK     1      43.223   9.904 -11.474  1.00  0.00     0.094 A 
ENDROOT
BRANCH   3  12
ATOM     12  O2  UNK     1      48.587  10.424  -8.037  1.00  0.00    -0.315 OA
BRANCH  12  13
ATOM     13  C4  UNK     1      48.324  10.977  -6.747  1.00  0.00     0.299 C 
ATOM     14  O1  UNK     1      48.833  12.306  -6.680  1.00  0.00    -0.340 OA
ATOM     15  C5  UNK     1      48.580  12.920  -5.421  1.00  0.00     0.253 C 
ATOM     16  C3  UNK     1      49.281  12.169  -4.295  1.00  0.00     0.189 C 
ATOM     17  C1  UNK     1      48.890  10.691  -4.304  1.00  0.00     0.183 C 
ATOM     18  C2  UNK     1      49.009  10.091  -5.705  1.00  0.00     0.205 C 
BRANCH  15  19
ATOM     19  C6  UNK     1      49.152  14.291  -5.586  1.00  0.00     0.172 C 
ATOM     20  O7  UNK     1      48.910  15.244  -4.861  1.00  0.00    -0.648 OA
BRANCH  19  21
ATOM     21  O6  UNK     1      49.980  14.338  -6.659  1.00  0.00    -0.774 OA
ATOM     22  H10 UNK     1      49.792  13.619  -7.299  1.00  0.00     0.167 HD
ENDBRANCH  19  21
ENDBRANCH  15  19
BRANCH  16  23
ATOM     23  O5  UNK     1      48.893  12.746  -3.050  1.00  0.00    -0.390 OA
ATOM     24  H8  UNK     1      48.815  13.708  -3.174  1.00  0.00     0.210 HD
ENDBRANCH  16  23
BRANCH  17  25
ATOM     25  O3  UNK     1      49.763   9.997  -3.412  1.00  0.00    -0.390 OA
ATOM     26  H6  UNK     1      50.383  10.646  -3.040  1.00  0.00     0.210 HD
ENDBRANCH  17  25
BRANCH  18  27
ATOM     27  O4  UNK     1      48.383   8.808  -5.727  1.00  0.00    -0.388 OA
ATOM     28  H7  UNK     1      48.287   8.543  -6.656  1.00  0.00     0.210 HD
ENDBRANCH  18  27
ENDBRANCH  12  13
ENDBRANCH   3  12
BRANCH   5  29
ATOM     29  O9  UNK     1      48.181   7.737  -8.551  1.00  0.00    -0.356 OA
ATOM     30  H12 UNK     1      48.033   7.627  -7.595  1.00  0.00     0.218 HD
ENDBRANCH   5  29
BRANCH   8  31
ATOM     31  O10 UNK     1      46.015   6.922  -9.996  1.00  0.00    -0.357 OA
ATOM     32  H13 UNK     1      46.786   6.552 -10.454  1.00  0.00     0.217 HD
ENDBRANCH   8  31
BRANCH  10  33
ATOM     33  C16 UNK     1      42.683  12.305 -11.583  1.00  0.00    -0.002 A 
ATOM     34  C17 UNK     1      41.422  12.069 -12.135  1.00  0.00     0.014 A 
ATOM     35  C19 UNK     1      40.619  13.139 -12.531  1.00  0.00     0.001 A 
ATOM     36  C21 UNK     1      41.074  14.448 -12.375  1.00  0.00     0.000 A 
ATOM     37  C20 UNK     1      42.333  14.687 -11.824  1.00  0.00     0.001 A 
ATOM     38  C18 UNK     1      43.136  13.617 -11.428  1.00  0.00     0.014 A 
ENDBRANCH  10  33
TORSDOF 10
ENDMDL
MODEL 4
REMARK VINA RESULT:      -6.2      1.286      1.784
REMARK  10 active torsions:
REMARK  status: ('A' for Active; 'I' for Inactive)
REMARK    1  A    between atoms: O2_2  and  C4_15 
REMARK    2  A    between atoms: O2_2  and  C7_18 
REMARK    3  A    between atoms: O3_3  and  C1_12 
REMARK    4  A    between atoms: O4_4  and  C2_13 
REMARK    5  A    between atoms: O5_5  and  C3_14 
REMARK    6  A    between atoms: O6_6  and  C6_17 
REMARK    7  A    between atoms: O9_9  and  C9_20 
REMARK    8  A    between atoms: O10_10  and  C12_23 
REMARK    9  A    between atoms: C5_16  and  C6_17 
REMARK   10  A    between atoms: C14_25  and  C16_27 
ROOT
ATOM      1  O8  UNK     1      45.228  12.885 -10.629  1.00  0.00    -0.309 OA
ATOM      2  O11 UNK     1      42.859   9.581 -10.895  1.00  0.00    -0.287 OA
ATOM      3  C7  UNK     1      47.141  10.645  -8.483  1.00  0.00     0.110 A 
ATOM      4  C8  UNK     1      46.741  11.777  -9.193  1.00  0.00     0.078 A 
ATOM      5  C9  UNK     1      46.375   9.480  -8.533  1.00  0.00     0.134 A 
ATOM      6  C10 UNK     1      45.571  11.742  -9.954  1.00  0.00     0.096 A 
ATOM      7  C11 UNK     1      44.808  10.577 -10.001  1.00  0.00     0.084 A 
ATOM      8  C12 UNK     1      45.205   9.441  -9.292  1.00  0.00     0.118 A 
ATOM      9  C13 UNK     1      43.578  10.568 -10.809  1.00  0.00     0.190 A 
ATOM     10  C14 UNK     1      44.075  12.877 -11.399  1.00  0.00     0.090 A 
ATOM     11  C15 UNK     1      43.255  11.821 -11.520  1.00  0.00     0.094 A 
ENDROOT
BRANCH   3  12
ATOM     12  O2  UNK     1      48.286  10.691  -7.743  1.00  0.00    -0.315 OA
BRANCH  12  13
ATOM     13  C4  UNK     1      48.616  11.948  -7.151  1.00  0.00     0.299 C 
ATOM     14  O1  UNK     1      49.939  12.324  -7.527  1.00  0.00    -0.340 OA
ATOM     15  C5  UNK     1      50.318  13.584  -6.984  1.00  0.00     0.253 C 
ATOM     16  C3  UNK     1      50.333  13.542  -5.461  1.00  0.00     0.189 C 
ATOM     17  C1  UNK     1      48.987  13.063  -4.919  1.00  0.00     0.183 C 
ATOM     18  C2  UNK     1      48.516  11.796  -5.633  1.00  0.00     0.205 C 
BRANCH  15  19
ATOM     19  C6  UNK     1      51.694  13.792  -7.528  1.00  0.00     0.172 C 
ATOM     20  O7  UNK     1      52.429  12.904  -7.935  1.00  0.00    -0.648 OA
BRANCH  19  21
ATOM     21  O6  UNK     1      52.024  15.106  -7.506  1.00  0.00    -0.774 OA
ATOM     22  H10 UNK     1      52.995  15.240  -7.485  1.00  0.00     0.167 HD
ENDBRANCH  19  21
ENDBRANCH  15  19
BRANCH  16  23
ATOM     23  O5  UNK     1      50.593  14.856  -4.970  1.00  0.00    -0.390 OA
ATOM     24  H8  UNK     1      49.739  15.301  -4.833  1.00  0.00     0.210 HD
ENDBRANCH  16  23
BRANCH  17  25
ATOM     25  O3  UNK     1      49.142  12.794  -3.524  1.00  0.00    -0.390 OA
ATOM     26  H6  UNK     1      49.728  13.475  -3.155  1.00  0.00     0.210 HD
ENDBRANCH  17  25
BRANCH  18  27
ATOM     27  O4  UNK     1      47.152  11.542  -5.298  1.00  0.00    -0.388 OA
ATOM     28  H7  UNK     1      47.142  10.897  -4.571  1.00  0.00     0.210 HD
ENDBRANCH  18  27
ENDBRANCH  12  13
ENDBRANCH   3  12
BRANCH   5  29
ATOM     29  O9  UNK     1      46.774   8.377  -7.835  1.00  0.00    -0.356 OA
ATOM     30  H12 UNK     1      46.582   8.523  -6.892  1.00  0.00     0.218 HD
ENDBRANCH   5  29
BRANCH   8  31
ATOM     31  O10 UNK     1      44.484   8.285  -9.315  1.00  0.00    -0.357 OA
ATOM     32  H13 UNK     1      44.978   7.562  -8.900  1.00  0.00     0.217 HD
ENDBRANCH   8  31
BRANCH  10  33
ATOM     33  C16 UNK     1      43.798  14.159 -12.078  1.00  0.00    -0.002 A 
ATOM     34  C17 UNK     1      44.547  15.296 -11.764  1.00  0.00     0.014 A 
ATOM     35  C19 UNK     1      44.286  16.506 -12.407  1.00  0.00     0.001 A 
ATOM     36  C21 UNK     1      43.276  16.583 -13.366  1.00  0.00     0.000 A 
ATOM     37  C20 UNK     1      42.526  15.450 -13.682  1.00  0.00     0.001 A 
ATOM     38  C18 UNK     1      42.788  14.240 -13.039  1.00  0.00     0.014 A 
ENDBRANCH  10  33
TORSDOF 10
ENDMDL
MODEL 5
REMARK VINA RESULT:      -6.2      3.281      4.309
REMARK  10 active torsions:
REMARK  status: ('A' for Active; 'I' for Inactive)
REMARK    1  A    between atoms: O2_2  and  C4_15 
REMARK    2  A    between atoms: O2_2  and  C7_18 
REMARK    3  A    between atoms: O3_3  and  C1_12 
REMARK    4  A    between atoms: O4_4  and  C2_13 
REMARK    5  A    between atoms: O5_5  and  C3_14 
REMARK    6  A    between atoms: O6_6  and  C6_17 
REMARK    7  A    between atoms: O9_9  and  C9_20 
REMARK    8  A    between atoms: O10_10  and  C12_23 
REMARK    9  A    between atoms: C5_16  and  C6_17 
REMARK   10  A    between atoms: C14_25  and  C16_27 
ROOT
ATOM      1  O8  UNK     1      44.980   9.095  -9.562  1.00  0.00    -0.309 OA
ATOM      2  O11 UNK     1      46.225   9.559 -13.413  1.00  0.00    -0.287 OA
ATOM      3  C7  UNK     1      48.503   9.783  -8.936  1.00  0.00     0.110 A 
ATOM      4  C8  UNK     1      47.154   9.495  -8.731  1.00  0.00     0.078 A 
ATOM      5  C9  UNK     1      48.994   9.955 -10.231  1.00  0.00     0.134 A 
ATOM      6  C10 UNK     1      46.295   9.380  -9.825  1.00  0.00     0.096 A 
ATOM      7  C11 UNK     1      46.788   9.552 -11.118  1.00  0.00     0.084 A 
ATOM      8  C12 UNK     1      48.138   9.840 -11.327  1.00  0.00     0.118 A 
ATOM      9  C13 UNK     1      45.861   9.423 -12.253  1.00  0.00     0.190 A 
ATOM     10  C14 UNK     1      44.102   8.982 -10.629  1.00  0.00     0.090 A 
ATOM     11  C15 UNK     1      44.455   9.120 -11.916  1.00  0.00     0.094 A 
ENDROOT
BRANCH   3  12
ATOM     12  O2  UNK     1      49.334   9.893  -7.860  1.00  0.00    -0.315 OA
BRANCH  12  13
ATOM     13  C4  UNK     1      48.880  10.715  -6.784  1.00  0.00     0.299 C 
ATOM     14  O1  UNK     1      49.566  11.965  -6.810  1.00  0.00    -0.340 OA
ATOM     15  C5  UNK     1      49.138  12.838  -5.771  1.00  0.00     0.253 C 
ATOM     16  C3  UNK     1      49.442  12.247  -4.399  1.00  0.00     0.189 C 
ATOM     17  C1  UNK     1      48.834  10.851  -4.264  1.00  0.00     0.183 C 
ATOM     18  C2  UNK     1      49.167   9.978  -5.475  1.00  0.00     0.205 C 
BRANCH  15  19
ATOM     19  C6  UNK     1      49.942  14.075  -6.010  1.00  0.00     0.172 C 
ATOM     20  O7  UNK     1      50.933  14.141  -6.722  1.00  0.00    -0.648 OA
BRANCH  19  21
ATOM     21  O6  UNK     1      49.423  15.123  -5.324  1.00  0.00    -0.774 OA
ATOM     22  H10 UNK     1      49.506  15.003  -4.354  1.00  0.00     0.167 HD
ENDBRANCH  19  21
ENDBRANCH  15  19
BRANCH  16  23
ATOM     23  O5  UNK     1      48.881  13.098  -3.401  1.00  0.00    -0.390 OA
ATOM     24  H8  UNK     1      48.606  12.543  -2.651  1.00  0.00     0.210 HD
ENDBRANCH  16  23
BRANCH  17  25
ATOM     25  O3  UNK     1      49.365  10.249  -3.083  1.00  0.00    -0.390 OA
ATOM     26  H6  UNK     1      48.839   9.455  -2.893  1.00  0.00     0.210 HD
ENDBRANCH  17  25
BRANCH  18  27
ATOM     27  O4  UNK     1      48.366   8.796  -5.442  1.00  0.00    -0.388 OA
ATOM     28  H7  UNK     1      47.448   9.058  -5.621  1.00  0.00     0.210 HD
ENDBRANCH  18  27
ENDBRANCH  12  13
ENDBRANCH   3  12
BRANCH   5  29
ATOM     29  O9  UNK     1      50.316  10.236 -10.423  1.00  0.00    -0.356 OA
ATOM     30  H12 UNK     1      50.833   9.435 -10.226  1.00  0.00     0.218 HD
ENDBRANCH   5  29
BRANCH   8  31
ATOM     31  O10 UNK     1      48.655  10.015 -12.576  1.00  0.00    -0.357 OA
ATOM     32  H13 UNK     1      47.970  10.315 -13.193  1.00  0.00     0.217 HD
ENDBRANCH   8  31
BRANCH  10  33
ATOM     33  C16 UNK     1      42.713   8.670 -10.233  1.00  0.00    -0.002 A 
ATOM     34  C17 UNK     1      42.377   7.380  -9.814  1.00  0.00     0.014 A 
ATOM     35  C19 UNK     1      41.065   7.086  -9.439  1.00  0.00     0.001 A 
ATOM     36  C21 UNK     1      40.087   8.079  -9.482  1.00  0.00     0.000 A 
ATOM     37  C20 UNK     1      40.420   9.368  -9.900  1.00  0.00     0.001 A 
ATOM     38  C18 UNK     1      41.731   9.662 -10.275  1.00  0.00     0.014 A 
ENDBRANCH  10  33
TORSDOF 10
ENDMDL
MODEL 6
REMARK VINA RESULT:      -6.1      3.333      4.376
REMARK  10 active torsions:
REMARK  status: ('A' for Active; 'I' for Inactive)
REMARK    1  A    between atoms: O2_2  and  C4_15 
REMARK    2  A    between atoms: O2_2  and  C7_18 
REMARK    3  A    between atoms: O3_3  and  C1_12 
REMARK    4  A    between atoms: O4_4  and  C2_13 
REMARK    5  A    between atoms: O5_5  and  C3_14 
REMARK    6  A    between atoms: O6_6  and  C6_17 
REMARK    7  A    between atoms: O9_9  and  C9_20 
REMARK    8  A    between atoms: O10_10  and  C12_23 
REMARK    9  A    between atoms: C5_16  and  C6_17 
REMARK   10  A    between atoms: C14_25  and  C16_27 
ROOT
ATOM      1  O8  UNK     1      44.845   9.106  -9.307  1.00  0.00    -0.309 OA
ATOM      2  O11 UNK     1      46.618   5.965 -11.202  1.00  0.00    -0.287 OA
ATOM      3  C7  UNK     1      48.327   9.906  -8.586  1.00  0.00     0.110 A 
ATOM      4  C8  UNK     1      46.934   9.973  -8.628  1.00  0.00     0.078 A 
ATOM      5  C9  UNK     1      48.996   8.856  -9.217  1.00  0.00     0.134 A 
ATOM      6  C10 UNK     1      46.211   8.987  -9.302  1.00  0.00     0.096 A 
ATOM      7  C11 UNK     1      46.883   7.940  -9.930  1.00  0.00     0.084 A 
ATOM      8  C12 UNK     1      48.277   7.869  -9.891  1.00  0.00     0.118 A 
ATOM      9  C13 UNK     1      46.096   6.913 -10.631  1.00  0.00     0.190 A 
ATOM     10  C14 UNK     1      44.102   8.145  -9.975  1.00  0.00     0.090 A 
ATOM     11  C15 UNK     1      44.630   7.088 -10.612  1.00  0.00     0.094 A 
ENDROOT
BRANCH   3  12
ATOM     12  O2  UNK     1      49.024  10.874  -7.926  1.00  0.00    -0.315 OA
BRANCH  12  13
ATOM     13  C4  UNK     1      48.760  11.012  -6.529  1.00  0.00     0.299 C 
ATOM     14  O1  UNK     1      48.657  12.393  -6.192  1.00  0.00    -0.340 OA
ATOM     15  C5  UNK     1      48.372  12.595  -4.813  1.00  0.00     0.253 C 
ATOM     16  C3  UNK     1      49.495  12.053  -3.936  1.00  0.00     0.189 C 
ATOM     17  C1  UNK     1      49.774  10.585  -4.258  1.00  0.00     0.183 C 
ATOM     18  C2  UNK     1      49.913  10.361  -5.764  1.00  0.00     0.205 C 
BRANCH  15  19
ATOM     19  C6  UNK     1      48.271  14.081  -4.696  1.00  0.00     0.172 C 
ATOM     20  O7  UNK     1      47.803  14.822  -5.548  1.00  0.00    -0.648 OA
BRANCH  19  21
ATOM     21  O6  UNK     1      48.776  14.503  -3.511  1.00  0.00    -0.774 OA
ATOM     22  H10 UNK     1      48.981  15.462  -3.521  1.00  0.00     0.167 HD
ENDBRANCH  19  21
ENDBRANCH  15  19
BRANCH  16  23
ATOM     23  O5  UNK     1      49.102  12.164  -2.569  1.00  0.00    -0.390 OA
ATOM     24  H8  UNK     1      49.879  12.440  -2.053  1.00  0.00     0.210 HD
ENDBRANCH  16  23
BRANCH  17  25
ATOM     25  O3  UNK     1      50.990  10.213  -3.607  1.00  0.00    -0.390 OA
ATOM     26  H6  UNK     1      51.422  11.027  -3.299  1.00  0.00     0.210 HD
ENDBRANCH  17  25
BRANCH  18  27
ATOM     27  O4  UNK     1      49.897   8.960  -6.039  1.00  0.00    -0.388 OA
ATOM     28  H7  UNK     1      49.010   8.628  -5.824  1.00  0.00     0.210 HD
ENDBRANCH  18  27
ENDBRANCH  12  13
ENDBRANCH   3  12
BRANCH   5  29
ATOM     29  O9  UNK     1      50.359   8.797  -9.172  1.00  0.00    -0.356 OA
ATOM     30  H12 UNK     1      50.670   9.394  -8.468  1.00  0.00     0.218 HD
ENDBRANCH   5  29
BRANCH   8  31
ATOM     31  O10 UNK     1      48.967   6.860 -10.494  1.00  0.00    -0.357 OA
ATOM     32  H13 UNK     1      48.440   6.460 -11.203  1.00  0.00     0.217 HD
ENDBRANCH   8  31
BRANCH  10  33
ATOM     33  C16 UNK     1      42.642   8.366  -9.915  1.00  0.00    -0.002 A 
ATOM     34  C17 UNK     1      41.798   7.353  -9.453  1.00  0.00     0.014 A 
ATOM     35  C19 UNK     1      40.420   7.563  -9.395  1.00  0.00     0.001 A 
ATOM     36  C21 UNK     1      39.882   8.786  -9.797  1.00  0.00     0.000 A 
ATOM     37  C20 UNK     1      40.722   9.799 -10.258  1.00  0.00     0.001 A 
ATOM     38  C18 UNK     1      42.100   9.589 -10.316  1.00  0.00     0.014 A 
ENDBRANCH  10  33
TORSDOF 10
ENDMDL
MODEL 7
REMARK VINA RESULT:      -6.1      3.184      5.445
REMARK  10 active torsions:
REMARK  status: ('A' for Active; 'I' for Inactive)
REMARK    1  A    between atoms: O2_2  and  C4_15 
REMARK    2  A    between atoms: O2_2  and  C7_18 
REMARK    3  A    between atoms: O3_3  and  C1_12 
REMARK    4  A    between atoms: O4_4  and  C2_13 
REMARK    5  A    between atoms: O5_5  and  C3_14 
REMARK    6  A    between atoms: O6_6  and  C6_17 
REMARK    7  A    between atoms: O9_9  and  C9_20 
REMARK    8  A    between atoms: O10_10  and  C12_23 
REMARK    9  A    between atoms: C5_16  and  C6_17 
REMARK   10  A    between atoms: C14_25  and  C16_27 
ROOT
ATOM      1  O8  UNK     1      45.908   7.343 -10.087  1.00  0.00    -0.309 OA
ATOM      2  O11 UNK     1      42.499   9.574 -10.013  1.00  0.00    -0.287 OA
ATOM      3  C7  UNK     1      47.157  10.219  -8.230  1.00  0.00     0.110 A 
ATOM      4  C8  UNK     1      47.099   8.985  -8.878  1.00  0.00     0.078 A 
ATOM      5  C9  UNK     1      46.024  11.031  -8.167  1.00  0.00     0.134 A 
ATOM      6  C10 UNK     1      45.904   8.565  -9.464  1.00  0.00     0.096 A 
ATOM      7  C11 UNK     1      44.774   9.378  -9.400  1.00  0.00     0.084 A 
ATOM      8  C12 UNK     1      44.828  10.614  -8.752  1.00  0.00     0.118 A 
ATOM      9  C13 UNK     1      43.528   8.912 -10.028  1.00  0.00     0.190 A 
ATOM     10  C14 UNK     1      44.732   6.896 -10.672  1.00  0.00     0.090 A 
ATOM     11  C15 UNK     1      43.583   7.589 -10.683  1.00  0.00     0.094 A 
ENDROOT
BRANCH   3  12
ATOM     12  O2  UNK     1      48.330  10.620  -7.660  1.00  0.00    -0.315 OA
BRANCH  12  13
ATOM     13  C4  UNK     1      48.291  10.928  -6.266  1.00  0.00     0.299 C 
ATOM     14  O1  UNK     1      48.594  12.307  -6.070  1.00  0.00    -0.340 OA
ATOM     15  C5  UNK     1      48.549  12.681  -4.697  1.00  0.00     0.253 C 
ATOM     16  C3  UNK     1      49.595  11.923  -3.888  1.00  0.00     0.189 C 
ATOM     17  C1  UNK     1      49.440  10.415  -4.079  1.00  0.00     0.183 C 
ATOM     18  C2  UNK     1      49.323  10.049  -5.559  1.00  0.00     0.205 C 
BRANCH  15  19
ATOM     19  C6  UNK     1      48.853  14.143  -4.729  1.00  0.00     0.172 C 
ATOM     20  O7  UNK     1      49.316  14.743  -5.689  1.00  0.00    -0.648 OA
BRANCH  19  21
ATOM     21  O6  UNK     1      48.549  14.722  -3.542  1.00  0.00    -0.774 OA
ATOM     22  H10 UNK     1      48.155  14.081  -2.912  1.00  0.00     0.167 HD
ENDBRANCH  19  21
ENDBRANCH  15  19
BRANCH  16  23
ATOM     23  O5  UNK     1      49.422  12.239  -2.508  1.00  0.00    -0.390 OA
ATOM     24  H8  UNK     1      49.173  11.422  -2.041  1.00  0.00     0.210 HD
ENDBRANCH  16  23
BRANCH  17  25
ATOM     25  O3  UNK     1      50.590   9.778  -3.521  1.00  0.00    -0.390 OA
ATOM     26  H6  UNK     1      51.377  10.197  -3.907  1.00  0.00     0.210 HD
ENDBRANCH  17  25
BRANCH  18  27
ATOM     27  O4  UNK     1      48.909   8.688  -5.680  1.00  0.00    -0.388 OA
ATOM     28  H7  UNK     1      49.431   8.284  -6.393  1.00  0.00     0.210 HD
ENDBRANCH  18  27
ENDBRANCH  12  13
ENDBRANCH   3  12
BRANCH   5  29
ATOM     29  O9  UNK     1      46.090  12.237  -7.531  1.00  0.00    -0.356 OA
ATOM     30  H12 UNK     1      45.391  12.812  -7.889  1.00  0.00     0.218 HD
ENDBRANCH   5  29
BRANCH   8  31
ATOM     31  O10 UNK     1      43.744  11.436  -8.671  1.00  0.00    -0.357 OA
ATOM     32  H13 UNK     1      44.013  12.340  -8.448  1.00  0.00     0.217 HD
ENDBRANCH   8  31
BRANCH  10  33
ATOM     33  C16 UNK     1      44.849   5.573 -11.318  1.00  0.00    -0.002 A 
ATOM     34  C17 UNK     1      44.008   4.526 -10.930  1.00  0.00     0.014 A 
ATOM     35  C19 UNK     1      44.118   3.277 -11.541  1.00  0.00     0.001 A 
ATOM     36  C21 UNK     1      45.067   3.070 -12.542  1.00  0.00     0.000 A 
ATOM     37  C20 UNK     1      45.908   4.113 -12.932  1.00  0.00     0.001 A 
ATOM     38  C18 UNK     1      45.798   5.362 -12.321  1.00  0.00     0.014 A 
ENDBRANCH  10  33
TORSDOF 10
ENDMDL
MODEL 8
REMARK VINA RESULT:      -6.1      2.621      8.330
REMARK  10 active torsions:
REMARK  status: ('A' for Active; 'I' for Inactive)
REMARK    1  A    between atoms: O2_2  and  C4_15 
REMARK    2  A    between atoms: O2_2  and  C7_18 
REMARK    3  A    between atoms: O3_3  and  C1_12 
REMARK    4  A    between atoms: O4_4  and  C2_13 
REMARK    5  A    between atoms: O5_5  and  C3_14 
REMARK    6  A    between atoms: O6_6  and  C6_17 
REMARK    7  A    between atoms: O9_9  and  C9_20 
REMARK    8  A    between atoms: O10_10  and  C12_23 
REMARK    9  A    between atoms: C5_16  and  C6_17 
REMARK   10  A    between atoms: C14_25  and  C16_27 
ROOT
ATOM      1  O8  UNK     1      46.307  11.502  -7.676  1.00  0.00    -0.309 OA
ATOM      2  O11 UNK     1      48.329   8.048  -8.441  1.00  0.00    -0.287 OA
ATOM      3  C7  UNK     1      43.821   9.845  -9.763  1.00  0.00     0.110 A 
ATOM      4  C8  UNK     1      44.457  10.793  -8.961  1.00  0.00     0.078 A 
ATOM      5  C9  UNK     1      44.458   8.639 -10.062  1.00  0.00     0.134 A 
ATOM      6  C10 UNK     1      45.733  10.532  -8.458  1.00  0.00     0.096 A 
ATOM      7  C11 UNK     1      46.367   9.328  -8.758  1.00  0.00     0.084 A 
ATOM      8  C12 UNK     1      45.733   8.376  -9.561  1.00  0.00     0.118 A 
ATOM      9  C13 UNK     1      47.712   9.081  -8.217  1.00  0.00     0.190 A 
ATOM     10  C14 UNK     1      47.571  11.268  -7.157  1.00  0.00     0.090 A 
ATOM     11  C15 UNK     1      48.285  10.153  -7.378  1.00  0.00     0.094 A 
ENDROOT
BRANCH   3  12
ATOM     12  O2  UNK     1      42.574  10.108 -10.249  1.00  0.00    -0.315 OA
BRANCH  12  13
ATOM     13  C4  UNK     1      42.506  10.717 -11.539  1.00  0.00     0.299 C 
ATOM     14  O1  UNK     1      42.243  12.111 -11.400  1.00  0.00    -0.340 OA
ATOM     15  C5  UNK     1      42.186  12.778 -12.656  1.00  0.00     0.253 C 
ATOM     16  C3  UNK     1      41.045  12.240 -13.511  1.00  0.00     0.189 C 
ATOM     17  C1  UNK     1      41.154  10.724 -13.669  1.00  0.00     0.183 C 
ATOM     18  C2  UNK     1      41.383  10.037 -12.322  1.00  0.00     0.205 C 
BRANCH  15  19
ATOM     19  C6  UNK     1      41.944  14.203 -12.277  1.00  0.00     0.172 C 
ATOM     20  O7  UNK     1      42.125  15.165 -13.009  1.00  0.00    -0.648 OA
BRANCH  19  21
ATOM     21  O6  UNK     1      41.497  14.289 -11.000  1.00  0.00    -0.774 OA
ATOM     22  H10 UNK     1      42.019  13.726 -10.390  1.00  0.00     0.167 HD
ENDBRANCH  19  21
ENDBRANCH  15  19
BRANCH  16  23
ATOM     23  O5  UNK     1      41.112  12.850 -14.799  1.00  0.00    -0.390 OA
ATOM     24  H8  UNK     1      40.251  13.264 -14.982  1.00  0.00     0.210 HD
ENDBRANCH  16  23
BRANCH  17  25
ATOM     25  O3  UNK     1      39.936  10.250 -14.245  1.00  0.00    -0.390 OA
ATOM     26  H6  UNK     1      39.619  10.927 -14.865  1.00  0.00     0.210 HD
ENDBRANCH  17  25
BRANCH  18  27
ATOM     27  O4  UNK     1      41.750   8.675 -12.541  1.00  0.00    -0.388 OA
ATOM     28  H7  UNK     1      42.143   8.340 -11.718  1.00  0.00     0.210 HD
ENDBRANCH  18  27
ENDBRANCH  12  13
ENDBRANCH   3  12
BRANCH   5  29
ATOM     29  O9  UNK     1      43.829   7.717 -10.847  1.00  0.00    -0.356 OA
ATOM     30  H12 UNK     1      44.425   6.957 -10.967  1.00  0.00     0.218 HD
ENDBRANCH   5  29
BRANCH   8  31
ATOM     31  O10 UNK     1      46.323   7.189  -9.875  1.00  0.00    -0.357 OA
ATOM     32  H13 UNK     1      47.279   7.298  -9.987  1.00  0.00     0.217 HD
ENDBRANCH   8  31
BRANCH  10  33
ATOM     33  C16 UNK     1      48.097  12.377  -6.334  1.00  0.00    -0.002 A 
ATOM     34  C17 UNK     1      48.951  13.327  -6.901  1.00  0.00     0.014 A 
ATOM     35  C19 UNK     1      49.446  14.375  -6.125  1.00  0.00     0.001 A 
ATOM     36  C21 UNK     1      49.089  14.477  -4.781  1.00  0.00     0.000 A 
ATOM     37  C20 UNK     1      48.237  13.530  -4.211  1.00  0.00     0.001 A 
ATOM     38  C18 UNK     1      47.742  12.482  -4.988  1.00  0.00     0.014 A 
ENDBRANCH  10  33
TORSDOF 10
ENDMDL
MODEL 9
REMARK VINA RESULT:      -6.1      3.296      8.284
REMARK  10 active torsions:
REMARK  status: ('A' for Active; 'I' for Inactive)
REMARK    1  A    between atoms: O2_2  and  C4_15 
REMARK    2  A    between atoms: O2_2  and  C7_18 
REMARK    3  A    between atoms: O3_3  and  C1_12 
REMARK    4  A    between atoms: O4_4  and  C2_13 
REMARK    5  A    between atoms: O5_5  and  C3_14 
REMARK    6  A    between atoms: O6_6  and  C6_17 
REMARK    7  A    between atoms: O9_9  and  C9_20 
REMARK    8  A    between atoms: O10_10  and  C12_23 
REMARK    9  A    between atoms: C5_16  and  C6_17 
REMARK   10  A    between atoms: C14_25  and  C16_27 
ROOT
ATOM      1  O8  UNK     1      47.453  10.572  -7.659  1.00  0.00    -0.309 OA
ATOM      2  O11 UNK     1      50.237   7.650  -7.101  1.00  0.00    -0.287 OA
ATOM      3  C7  UNK     1      46.184   8.122 -10.040  1.00  0.00     0.110 A 
ATOM      4  C8  UNK     1      46.317   9.285  -9.281  1.00  0.00     0.078 A 
ATOM      5  C9  UNK     1      47.103   7.082  -9.895  1.00  0.00     0.134 A 
ATOM      6  C10 UNK     1      47.374   9.406  -8.376  1.00  0.00     0.096 A 
ATOM      7  C11 UNK     1      48.291   8.366  -8.234  1.00  0.00     0.084 A 
ATOM      8  C12 UNK     1      48.160   7.200  -8.992  1.00  0.00     0.118 A 
ATOM      9  C13 UNK     1      49.395   8.521  -7.275  1.00  0.00     0.190 A 
ATOM     10  C14 UNK     1      48.488  10.717  -6.747  1.00  0.00     0.090 A 
ATOM     11  C15 UNK     1      49.435   9.792  -6.525  1.00  0.00     0.094 A 
ENDROOT
BRANCH   3  12
ATOM     12  O2  UNK     1      45.148   8.014 -10.920  1.00  0.00    -0.315 OA
BRANCH  12  13
ATOM     13  C4  UNK     1      44.106   8.984 -10.805  1.00  0.00     0.299 C 
ATOM     14  O1  UNK     1      42.944   8.377 -10.246  1.00  0.00    -0.340 OA
ATOM     15  C5  UNK     1      41.875   9.303 -10.085  1.00  0.00     0.253 C 
ATOM     16  C3  UNK     1      41.425   9.860 -11.430  1.00  0.00     0.189 C 
ATOM     17  C1  UNK     1      42.606  10.470 -12.186  1.00  0.00     0.183 C 
ATOM     18  C2  UNK     1      43.806   9.523 -12.204  1.00  0.00     0.205 C 
BRANCH  15  19
ATOM     19  C6  UNK     1      40.797   8.477  -9.461  1.00  0.00     0.172 C 
ATOM     20  O7  UNK     1      40.759   7.255  -9.462  1.00  0.00    -0.648 OA
BRANCH  19  21
ATOM     21  O6  UNK     1      39.857   9.269  -8.891  1.00  0.00    -0.774 OA
ATOM     22  H10 UNK     1      39.214   8.752  -8.361  1.00  0.00     0.167 HD
ENDBRANCH  19  21
ENDBRANCH  15  19
BRANCH  16  23
ATOM     23  O5  UNK     1      40.445  10.871 -11.202  1.00  0.00    -0.390 OA
ATOM     24  H8  UNK     1      39.793  10.827 -11.922  1.00  0.00     0.210 HD
ENDBRANCH  16  23
BRANCH  17  25
ATOM     25  O3  UNK     1      42.186  10.732 -13.526  1.00  0.00    -0.390 OA
ATOM     26  H6  UNK     1      42.374   9.939 -14.055  1.00  0.00     0.210 HD
ENDBRANCH  17  25
BRANCH  18  27
ATOM     27  O4  UNK     1      44.958  10.226 -12.670  1.00  0.00    -0.388 OA
ATOM     28  H7  UNK     1      44.958  11.102 -12.249  1.00  0.00     0.210 HD
ENDBRANCH  18  27
ENDBRANCH  12  13
ENDBRANCH   3  12
BRANCH   5  29
ATOM     29  O9  UNK     1      46.966   5.948 -10.642  1.00  0.00    -0.356 OA
ATOM     30  H12 UNK     1      46.028   5.689 -10.637  1.00  0.00     0.218 HD
ENDBRANCH   5  29
BRANCH   8  31
ATOM     31  O10 UNK     1      49.038   6.163  -8.879  1.00  0.00    -0.357 OA
ATOM     32  H13 UNK     1      49.261   5.806  -9.752  1.00  0.00     0.217 HD
ENDBRANCH   8  31
BRANCH  10  33
ATOM     33  C16 UNK     1      48.482  12.011  -6.034  1.00  0.00    -0.002 A 
ATOM     34  C17 UNK     1      48.935  13.167  -6.675  1.00  0.00     0.014 A 
ATOM     35  C19 UNK     1      48.928  14.389  -6.001  1.00  0.00     0.001 A 
ATOM     36  C21 UNK     1      48.469  14.459  -4.686  1.00  0.00     0.000 A 
ATOM     37  C20 UNK     1      48.016  13.306  -4.044  1.00  0.00     0.001 A 
ATOM     38  C18 UNK     1      48.023  12.084  -4.717  1.00  0.00     0.014 A 
ENDBRANCH  10  33
TORSDOF 10
ENDMDL
MODEL 10
REMARK VINA RESULT:      -5.9      3.610      8.273
REMARK  10 active torsions:
REMARK  status: ('A' for Active; 'I' for Inactive)
REMARK    1  A    between atoms: O2_2  and  C4_15 
REMARK    2  A    between atoms: O2_2  and  C7_18 
REMARK    3  A    between atoms: O3_3  and  C1_12 
REMARK    4  A    between atoms: O4_4  and  C2_13 
REMARK    5  A    between atoms: O5_5  and  C3_14 
REMARK    6  A    between atoms: O6_6  and  C6_17 
REMARK    7  A    between atoms: O9_9  and  C9_20 
REMARK    8  A    between atoms: O10_10  and  C12_23 
REMARK    9  A    between atoms: C5_16  and  C6_17 
REMARK   10  A    between atoms: C14_25  and  C16_27 
ROOT
ATOM      1  O8  UNK     1      47.267  11.834  -8.477  1.00  0.00    -0.309 OA
ATOM      2  O11 UNK     1      50.641  11.844 -10.760  1.00  0.00    -0.287 OA
ATOM      3  C7  UNK     1      45.913  10.296 -11.490  1.00  0.00     0.110 A 
ATOM      4  C8  UNK     1      46.011  10.825 -10.203  1.00  0.00     0.078 A 
ATOM      5  C9  UNK     1      47.032  10.268 -12.323  1.00  0.00     0.134 A 
ATOM      6  C10 UNK     1      47.232  11.326  -9.750  1.00  0.00     0.096 A 
ATOM      7  C11 UNK     1      48.348  11.298 -10.584  1.00  0.00     0.084 A 
ATOM      8  C12 UNK     1      48.254  10.769 -11.873  1.00  0.00     0.118 A 
ATOM      9  C13 UNK     1      49.622  11.835 -10.082  1.00  0.00     0.190 A 
ATOM     10  C14 UNK     1      48.468  12.333  -7.997  1.00  0.00     0.090 A 
ATOM     11  C15 UNK     1      49.609  12.366  -8.704  1.00  0.00     0.094 A 
ENDROOT
BRANCH   3  12
ATOM     12  O2  UNK     1      44.715   9.807 -11.923  1.00  0.00    -0.315 OA
BRANCH  12  13
ATOM     13  C4  UNK     1      43.830   9.305 -10.921  1.00  0.00     0.299 C 
ATOM     14  O1  UNK     1      43.745   7.885 -11.022  1.00  0.00    -0.340 OA
ATOM     15  C5  UNK     1      42.892   7.322 -10.032  1.00  0.00     0.253 C 
ATOM     16  C3  UNK     1      41.461   7.819 -10.196  1.00  0.00     0.189 C 
ATOM     17  C1  UNK     1      41.414   9.347 -10.195  1.00  0.00     0.183 C 
ATOM     18  C2  UNK     1      42.456   9.937 -11.145  1.00  0.00     0.205 C 
BRANCH  15  19
ATOM     19  C6  UNK     1      42.982   5.854 -10.295  1.00  0.00     0.172 C 
ATOM     20  O7  UNK     1      43.329   5.351 -11.354  1.00  0.00    -0.648 OA
BRANCH  19  21
ATOM     21  O6  UNK     1      42.623   5.148  -9.196  1.00  0.00    -0.774 OA
ATOM     22  H10 UNK     1      43.216   4.382  -9.042  1.00  0.00     0.167 HD
ENDBRANCH  19  21
ENDBRANCH  15  19
BRANCH  16  23
ATOM     23  O5  UNK     1      40.679   7.328  -9.108  1.00  0.00    -0.390 OA
ATOM     24  H8  UNK     1      41.256   7.261  -8.328  1.00  0.00     0.210 HD
ENDBRANCH  16  23
BRANCH  17  25
ATOM     25  O3  UNK     1      40.108   9.749 -10.611  1.00  0.00    -0.390 OA
ATOM     26  H6  UNK     1      40.087  10.721 -10.622  1.00  0.00     0.210 HD
ENDBRANCH  17  25
BRANCH  18  27
ATOM     27  O4  UNK     1      42.567  11.342 -10.913  1.00  0.00    -0.388 OA
ATOM     28  H7  UNK     1      41.835  11.603 -10.330  1.00  0.00     0.210 HD
ENDBRANCH  18  27
ENDBRANCH  12  13
ENDBRANCH   3  12
BRANCH   5  29
ATOM     29  O9  UNK     1      46.928   9.748 -13.581  1.00  0.00    -0.356 OA
ATOM     30  H12 UNK     1      47.725   9.221 -13.763  1.00  0.00     0.218 HD
ENDBRANCH   5  29
BRANCH   8  31
ATOM     31  O10 UNK     1      49.324  10.724 -12.716  1.00  0.00    -0.357 OA
ATOM     32  H13 UNK     1      49.081  10.312 -13.559  1.00  0.00     0.217 HD
ENDBRANCH   8  31
BRANCH  10  33
ATOM     33  C16 UNK     1      48.393  12.858  -6.619  1.00  0.00    -0.002 A 
ATOM     34  C17 UNK     1      48.874  14.138  -6.328  1.00  0.00     0.014 A 
ATOM     35  C19 UNK     1      48.802  14.634  -5.026  1.00  0.00     0.001 A 
ATOM     36  C21 UNK     1      48.248  13.854  -4.012  1.00  0.00     0.000 A 
ATOM     37  C20 UNK     1      47.766  12.576  -4.298  1.00  0.00     0.001 A 
ATOM     38  C18 UNK     1      47.839  12.080  -5.600  1.00  0.00     0.014 A 
ENDBRANCH  10  33
TORSDOF 10
ENDMDL
MODEL 11
REMARK VINA RESULT:      -5.9      3.470      5.647
REMARK  10 active torsions:
REMARK  status: ('A' for Active; 'I' for Inactive)
REMARK    1  A    between atoms: O2_2  and  C4_15 
REMARK    2  A    between atoms: O2_2  and  C7_18 
REMARK    3  A    between atoms: O3_3  and  C1_12 
REMARK    4  A    between atoms: O4_4  and  C2_13 
REMARK    5  A    between atoms: O5_5  and  C3_14 
REMARK    6  A    between atoms: O6_6  and  C6_17 
REMARK    7  A    between atoms: O9_9  and  C9_20 
REMARK    8  A    between atoms: O10_10  and  C12_23 
REMARK    9  A    between atoms: C5_16  and  C6_17 
REMARK   10  A    between atoms: C14_25  and  C16_27 
ROOT
ATOM      1  O8  UNK     1      45.579   7.179 -10.275  1.00  0.00    -0.309 OA
ATOM      2  O11 UNK     1      42.306   9.514  -9.616  1.00  0.00    -0.287 OA
ATOM      3  C7  UNK     1      47.203   9.951  -8.556  1.00  0.00     0.110 A 
ATOM      4  C8  UNK     1      47.001   8.741  -9.220  1.00  0.00     0.078 A 
ATOM      5  C9  UNK     1      46.123  10.797  -8.297  1.00  0.00     0.134 A 
ATOM      6  C10 UNK     1      45.715   8.379  -9.626  1.00  0.00     0.096 A 
ATOM      7  C11 UNK     1      44.639   9.226  -9.367  1.00  0.00     0.084 A 
ATOM      8  C12 UNK     1      44.837  10.438  -8.702  1.00  0.00     0.118 A 
ATOM      9  C13 UNK     1      43.296   8.819  -9.807  1.00  0.00     0.190 A 
ATOM     10  C14 UNK     1      44.312   6.789 -10.684  1.00  0.00     0.090 A 
ATOM     11  C15 UNK     1      43.201   7.517 -10.498  1.00  0.00     0.094 A 
ENDROOT
BRANCH   3  12
ATOM     12  O2  UNK     1      48.463  10.296  -8.163  1.00  0.00    -0.315 OA
BRANCH  12  13
ATOM     13  C4  UNK     1      48.830   9.958  -6.825  1.00  0.00     0.299 C 
ATOM     14  O1  UNK     1      48.571  11.062  -5.962  1.00  0.00    -0.340 OA
ATOM     15  C5  UNK     1      48.898  10.777  -4.606  1.00  0.00     0.253 C 
ATOM     16  C3  UNK     1      50.387  10.490  -4.450  1.00  0.00     0.189 C 
ATOM     17  C1  UNK     1      50.825   9.372  -5.396  1.00  0.00     0.183 C 
ATOM     18  C2  UNK     1      50.320   9.614  -6.818  1.00  0.00     0.205 C 
BRANCH  15  19
ATOM     19  C6  UNK     1      48.517  12.032  -3.890  1.00  0.00     0.172 C 
ATOM     20  O7  UNK     1      47.429  12.582  -3.969  1.00  0.00    -0.648 OA
BRANCH  19  21
ATOM     21  O6  UNK     1      49.549  12.485  -3.137  1.00  0.00    -0.774 OA
ATOM     22  H10 UNK     1      49.916  11.783  -2.557  1.00  0.00     0.167 HD
ENDBRANCH  19  21
ENDBRANCH  15  19
BRANCH  16  23
ATOM     23  O5  UNK     1      50.636  10.087  -3.105  1.00  0.00    -0.390 OA
ATOM     24  H8  UNK     1      49.797  10.135  -2.615  1.00  0.00     0.210 HD
ENDBRANCH  16  23
BRANCH  17  25
ATOM     25  O3  UNK     1      52.253   9.329  -5.398  1.00  0.00    -0.390 OA
ATOM     26  H6  UNK     1      52.576  10.205  -5.131  1.00  0.00     0.210 HD
ENDBRANCH  17  25
BRANCH  18  27
ATOM     27  O4  UNK     1      50.510   8.432  -7.597  1.00  0.00    -0.388 OA
ATOM     28  H7  UNK     1      49.849   8.438  -8.308  1.00  0.00     0.210 HD
ENDBRANCH  18  27
ENDBRANCH  12  13
ENDBRANCH   3  12
BRANCH   5  29
ATOM     29  O9  UNK     1      46.329  11.979  -7.647  1.00  0.00    -0.356 OA
ATOM     30  H12 UNK     1      46.947  11.822  -6.911  1.00  0.00     0.218 HD
ENDBRANCH   5  29
BRANCH   8  31
ATOM     31  O10 UNK     1      43.809  11.290  -8.431  1.00  0.00    -0.357 OA
ATOM     32  H13 UNK     1      43.033  10.803  -8.115  1.00  0.00     0.217 HD
ENDBRANCH   8  31
BRANCH  10  33
ATOM     33  C16 UNK     1      44.280   5.484 -11.376  1.00  0.00    -0.002 A 
ATOM     34  C17 UNK     1      43.176   4.639 -11.229  1.00  0.00     0.014 A 
ATOM     35  C19 UNK     1      43.146   3.408 -11.883  1.00  0.00     0.001 A 
ATOM     36  C21 UNK     1      44.217   3.017 -12.687  1.00  0.00     0.000 A 
ATOM     37  C20 UNK     1      45.320   3.858 -12.835  1.00  0.00     0.001 A 
ATOM     38  C18 UNK     1      45.351   5.089 -12.181  1.00  0.00     0.014 A 
ENDBRANCH  10  33
TORSDOF 10
ENDMDL
MODEL 12
REMARK VINA RESULT:      -5.8      3.811      9.239
REMARK  10 active torsions:
REMARK  status: ('A' for Active; 'I' for Inactive)
REMARK    1  A    between atoms: O2_2  and  C4_15 
REMARK    2  A    between atoms: O2_2  and  C7_18 
REMARK    3  A    between atoms: O3_3  and  C1_12 
REMARK    4  A    between atoms: O4_4  and  C2_13 
REMARK    5  A    between atoms: O5_5  and  C3_14 
REMARK    6  A    between atoms: O6_6  and  C6_17 
REMARK    7  A    between atoms: O9_9  and  C9_20 
REMARK    8  A    between atoms: O10_10  and  C12_23 
REMARK    9  A    between atoms: C5_16  and  C6_17 
REMARK   10  A    between atoms: C14_25  and  C16_27 
ROOT
ATOM      1  O8  UNK     1      48.725   9.773  -6.531  1.00  0.00    -0.309 OA
ATOM      2  O11 UNK     1      51.513   7.505  -8.450  1.00  0.00    -0.287 OA
ATOM      3  C7  UNK     1      46.945   9.223  -9.663  1.00  0.00     0.110 A 
ATOM      4  C8  UNK     1      47.254   9.660  -8.375  1.00  0.00     0.078 A 
ATOM      5  C9  UNK     1      47.856   8.442 -10.375  1.00  0.00     0.134 A 
ATOM      6  C10 UNK     1      48.477   9.313  -7.799  1.00  0.00     0.096 A 
ATOM      7  C11 UNK     1      49.385   8.533  -8.512  1.00  0.00     0.084 A 
ATOM      8  C12 UNK     1      49.079   8.093  -9.802  1.00  0.00     0.118 A 
ATOM      9  C13 UNK     1      50.668   8.184  -7.882  1.00  0.00     0.190 A 
ATOM     10  C14 UNK     1      49.929   9.438  -5.931  1.00  0.00     0.090 A 
ATOM     11  C15 UNK     1      50.885   8.699  -6.515  1.00  0.00     0.094 A 
ENDROOT
BRANCH   3  12
ATOM     12  O2  UNK     1      45.746   9.567 -10.216  1.00  0.00    -0.315 OA
BRANCH  12  13
ATOM     13  C4  UNK     1      44.615   8.787  -9.827  1.00  0.00     0.299 C 
ATOM     14  O1  UNK     1      44.402   7.744 -10.775  1.00  0.00    -0.340 OA
ATOM     15  C5  UNK     1      43.298   6.915 -10.429  1.00  0.00     0.253 C 
ATOM     16  C3  UNK     1      41.999   7.712 -10.415  1.00  0.00     0.189 C 
ATOM     17  C1  UNK     1      42.118   8.927  -9.495  1.00  0.00     0.183 C 
ATOM     18  C2  UNK     1      43.400   9.713  -9.772  1.00  0.00     0.205 C 
BRANCH  15  19
ATOM     19  C6  UNK     1      43.284   5.890 -11.515  1.00  0.00     0.172 C 
ATOM     20  O7  UNK     1      43.875   5.987 -12.581  1.00  0.00    -0.648 OA
BRANCH  19  21
ATOM     21  O6  UNK     1      42.521   4.827 -11.161  1.00  0.00    -0.774 OA
ATOM     22  H10 UNK     1      41.641   4.846 -11.596  1.00  0.00     0.167 HD
ENDBRANCH  19  21
ENDBRANCH  15  19
BRANCH  16  23
ATOM     23  O5  UNK     1      40.950   6.869  -9.940  1.00  0.00    -0.390 OA
ATOM     24  H8  UNK     1      41.296   5.962  -9.882  1.00  0.00     0.210 HD
ENDBRANCH  16  23
BRANCH  17  25
ATOM     25  O3  UNK     1      40.985   9.767  -9.723  1.00  0.00    -0.390 OA
ATOM     26  H6  UNK     1      40.683   9.616 -10.633  1.00  0.00     0.210 HD
ENDBRANCH  17  25
BRANCH  18  27
ATOM     27  O4  UNK     1      43.608  10.663  -8.727  1.00  0.00    -0.388 OA
ATOM     28  H7  UNK     1      42.790  11.177  -8.628  1.00  0.00     0.210 HD
ENDBRANCH  18  27
ENDBRANCH  12  13
ENDBRANCH   3  12
BRANCH   5  29
ATOM     29  O9  UNK     1      47.546   8.018 -11.635  1.00  0.00    -0.356 OA
ATOM     30  H12 UNK     1      47.003   8.703 -12.064  1.00  0.00     0.218 HD
ENDBRANCH   5  29
BRANCH   8  31
ATOM     31  O10 UNK     1      49.943   7.329 -10.529  1.00  0.00    -0.357 OA
ATOM     32  H13 UNK     1      50.371   7.856 -11.220  1.00  0.00     0.217 HD
ENDBRANCH   8  31
BRANCH  10  33
ATOM     33  C16 UNK     1      50.095   9.987  -4.569  1.00  0.00    -0.002 A 
ATOM     34  C17 UNK     1      49.143  10.867  -4.048  1.00  0.00     0.014 A 
ATOM     35  C19 UNK     1      49.299  11.385  -2.762  1.00  0.00     0.001 A 
ATOM     36  C21 UNK     1      50.406  11.024  -1.993  1.00  0.00     0.000 A 
ATOM     37  C20 UNK     1      51.358  10.145  -2.511  1.00  0.00     0.001 A 
ATOM     38  C18 UNK     1      51.201   9.628  -3.797  1.00  0.00     0.014 A 
ENDBRANCH  10  33
TORSDOF 10
ENDMDL
MODEL 13
REMARK VINA RESULT:      -5.8      3.124      8.699
REMARK  10 active torsions:
REMARK  status: ('A' for Active; 'I' for Inactive)
REMARK    1  A    between atoms: O2_2  and  C4_15 
REMARK    2  A    between atoms: O2_2  and  C7_18 
REMARK    3  A    between atoms: O3_3  and  C1_12 
REMARK    4  A    between atoms: O4_4  and  C2_13 
REMARK    5  A    between atoms: O5_5  and  C3_14 
REMARK    6  A    between atoms: O6_6  and  C6_17 
REMARK    7  A    between atoms: O9_9  and  C9_20 
REMARK    8  A    between atoms: O10_10  and  C12_23 
REMARK    9  A    between atoms: C5_16  and  C6_17 
REMARK   10  A    between atoms: C14_25  and  C16_27 
ROOT
ATOM      1  O8  UNK     1      47.549  10.680  -7.393  1.00  0.00    -0.309 OA
ATOM      2  O11 UNK     1      50.146   8.390  -9.542  1.00  0.00    -0.287 OA
ATOM      3  C7  UNK     1      45.722  10.561 -10.544  1.00  0.00     0.110 A 
ATOM      4  C8  UNK     1      46.068  10.852  -9.225  1.00  0.00     0.078 A 
ATOM      5  C9  UNK     1      46.567   9.780 -11.334  1.00  0.00     0.134 A 
ATOM      6  C10 UNK     1      47.263  10.360  -8.696  1.00  0.00     0.096 A 
ATOM      7  C11 UNK     1      48.105   9.581  -9.487  1.00  0.00     0.084 A 
ATOM      8  C12 UNK     1      47.762   9.287 -10.809  1.00  0.00     0.118 A 
ATOM      9  C13 UNK     1      49.358   9.077  -8.905  1.00  0.00     0.190 A 
ATOM     10  C14 UNK     1      48.726  10.199  -6.839  1.00  0.00     0.090 A 
ATOM     11  C15 UNK     1      49.620   9.446  -7.499  1.00  0.00     0.094 A 
ENDROOT
BRANCH   3  12
ATOM     12  O2  UNK     1      44.552  11.046 -11.051  1.00  0.00    -0.315 OA
BRANCH  12  13
ATOM     13  C4  UNK     1      43.348  10.545 -10.471  1.00  0.00     0.299 C 
ATOM     14  O1  UNK     1      43.426   9.127 -10.350  1.00  0.00    -0.340 OA
ATOM     15  C5  UNK     1      42.259   8.569  -9.756  1.00  0.00     0.253 C 
ATOM     16  C3  UNK     1      41.029   8.828 -10.618  1.00  0.00     0.189 C 
ATOM     17  C1  UNK     1      40.872  10.321 -10.904  1.00  0.00     0.183 C 
ATOM     18  C2  UNK     1      42.186  10.938 -11.384  1.00  0.00     0.205 C 
BRANCH  15  19
ATOM     19  C6  UNK     1      42.570   7.109  -9.693  1.00  0.00     0.172 C 
ATOM     20  O7  UNK     1      41.749   6.224  -9.500  1.00  0.00    -0.648 OA
BRANCH  19  21
ATOM     21  O6  UNK     1      43.895   6.894  -9.875  1.00  0.00    -0.774 OA
ATOM     22  H10 UNK     1      44.276   6.328  -9.170  1.00  0.00     0.167 HD
ENDBRANCH  19  21
ENDBRANCH  15  19
BRANCH  16  23
ATOM     23  O5  UNK     1      39.875   8.364  -9.919  1.00  0.00    -0.390 OA
ATOM     24  H8  UNK     1      40.175   7.846  -9.152  1.00  0.00     0.210 HD
ENDBRANCH  16  23
BRANCH  17  25
ATOM     25  O3  UNK     1      39.875  10.476 -11.915  1.00  0.00    -0.390 OA
ATOM     26  H6  UNK     1      40.328  10.706 -12.743  1.00  0.00     0.210 HD
ENDBRANCH  17  25
BRANCH  18  27
ATOM     27  O4  UNK     1      42.072  12.362 -11.375  1.00  0.00    -0.388 OA
ATOM     28  H7  UNK     1      41.526  12.609 -10.611  1.00  0.00     0.210 HD
ENDBRANCH  18  27
ENDBRANCH  12  13
ENDBRANCH   3  12
BRANCH   5  29
ATOM     29  O9  UNK     1      46.221   9.500 -12.624  1.00  0.00    -0.356 OA
ATOM     30  H12 UNK     1      46.286  10.320 -13.145  1.00  0.00     0.218 HD
ENDBRANCH   5  29
BRANCH   8  31
ATOM     31  O10 UNK     1      48.561   8.529 -11.611  1.00  0.00    -0.357 OA
ATOM     32  H13 UNK     1      49.444   8.431 -11.223  1.00  0.00     0.217 HD
ENDBRANCH   8  31
BRANCH  10  33
ATOM     33  C16 UNK     1      48.938  10.606  -5.435  1.00  0.00    -0.002 A 
ATOM     34  C17 UNK     1      48.275  11.724  -4.921  1.00  0.00     0.014 A 
ATOM     35  C19 UNK     1      48.475  12.107  -3.594  1.00  0.00     0.001 A 
ATOM     36  C21 UNK     1      49.336  11.375  -2.778  1.00  0.00     0.000 A 
ATOM     37  C20 UNK     1      50.000  10.258  -3.288  1.00  0.00     0.001 A 
ATOM     38  C18 UNK     1      49.800   9.875  -4.615  1.00  0.00     0.014 A 
ENDBRANCH  10  33
TORSDOF 10
ENDMDL
MODEL 14
REMARK VINA RESULT:      -5.8      3.146      7.790
REMARK  10 active torsions:
REMARK  status: ('A' for Active; 'I' for Inactive)
REMARK    1  A    between atoms: O2_2  and  C4_15 
REMARK    2  A    between atoms: O2_2  and  C7_18 
REMARK    3  A    between atoms: O3_3  and  C1_12 
REMARK    4  A    between atoms: O4_4  and  C2_13 
REMARK    5  A    between atoms: O5_5  and  C3_14 
REMARK    6  A    between atoms: O6_6  and  C6_17 
REMARK    7  A    between atoms: O9_9  and  C9_20 
REMARK    8  A    between atoms: O10_10  and  C12_23 
REMARK    9  A    between atoms: C5_16  and  C6_17 
REMARK   10  A    between atoms: C14_25  and  C16_27 
ROOT
ATOM      1  O8  UNK     1      47.216  11.021  -8.098  1.00  0.00    -0.309 OA
ATOM      2  O11 UNK     1      49.510  12.138 -11.275  1.00  0.00    -0.287 OA
ATOM      3  C7  UNK     1      45.923   8.683 -10.576  1.00  0.00     0.110 A 
ATOM      4  C8  UNK     1      46.118   9.366  -9.376  1.00  0.00     0.078 A 
ATOM      5  C9  UNK     1      46.678   9.015 -11.702  1.00  0.00     0.134 A 
ATOM      6  C10 UNK     1      47.070  10.384  -9.304  1.00  0.00     0.096 A 
ATOM      7  C11 UNK     1      47.822  10.715 -10.430  1.00  0.00     0.084 A 
ATOM      8  C12 UNK     1      47.630  10.033 -11.633  1.00  0.00     0.118 A 
ATOM      9  C13 UNK     1      48.817  11.793 -10.326  1.00  0.00     0.190 A 
ATOM     10  C14 UNK     1      48.160  12.032  -7.995  1.00  0.00     0.090 A 
ATOM     11  C15 UNK     1      48.939  12.444  -9.006  1.00  0.00     0.094 A 
ENDROOT
BRANCH   3  12
ATOM     12  O2  UNK     1      44.991   7.689 -10.635  1.00  0.00    -0.315 OA
BRANCH  12  13
ATOM     13  C4  UNK     1      43.671   8.073 -11.025  1.00  0.00     0.299 C 
ATOM     14  O1  UNK     1      43.678   9.424 -11.479  1.00  0.00    -0.340 OA
ATOM     15  C5  UNK     1      42.391   9.858 -11.904  1.00  0.00     0.253 C 
ATOM     16  C3  UNK     1      41.395   9.831 -10.750  1.00  0.00     0.189 C 
ATOM     17  C1  UNK     1      41.352   8.445 -10.104  1.00  0.00     0.183 C 
ATOM     18  C2  UNK     1      42.758   7.924  -9.808  1.00  0.00     0.205 C 
BRANCH  15  19
ATOM     19  C6  UNK     1      42.635  11.258 -12.365  1.00  0.00     0.172 C 
ATOM     20  O7  UNK     1      43.127  11.566 -13.441  1.00  0.00    -0.648 OA
BRANCH  19  21
ATOM     21  O6  UNK     1      42.240  12.149 -11.423  1.00  0.00    -0.774 OA
ATOM     22  H10 UNK     1      42.753  12.983 -11.470  1.00  0.00     0.167 HD
ENDBRANCH  19  21
ENDBRANCH  15  19
BRANCH  16  23
ATOM     23  O5  UNK     1      40.100  10.150 -11.255  1.00  0.00    -0.390 OA
ATOM     24  H8  UNK     1      40.063  11.110 -11.406  1.00  0.00     0.210 HD
ENDBRANCH  16  23
BRANCH  17  25
ATOM     25  O3  UNK     1      40.615   8.548  -8.885  1.00  0.00    -0.390 OA
ATOM     26  H6  UNK     1      39.747   8.930  -9.096  1.00  0.00     0.210 HD
ENDBRANCH  17  25
BRANCH  18  27
ATOM     27  O4  UNK     1      42.688   6.539  -9.467  1.00  0.00    -0.388 OA
ATOM     28  H7  UNK     1      41.800   6.367  -9.114  1.00  0.00     0.210 HD
ENDBRANCH  18  27
ENDBRANCH  12  13
ENDBRANCH   3  12
BRANCH   5  29
ATOM     29  O9  UNK     1      46.481   8.342 -12.873  1.00  0.00    -0.356 OA
ATOM     30  H12 UNK     1      47.349   8.153 -13.269  1.00  0.00     0.218 HD
ENDBRANCH   5  29
BRANCH   8  31
ATOM     31  O10 UNK     1      48.347  10.329 -12.754  1.00  0.00    -0.357 OA
ATOM     32  H13 UNK     1      48.089   9.752 -13.489  1.00  0.00     0.217 HD
ENDBRANCH   8  31
BRANCH  10  33
ATOM     33  C16 UNK     1      48.231  12.652  -6.656  1.00  0.00    -0.002 A 
ATOM     34  C17 UNK     1      48.824  13.907  -6.495  1.00  0.00     0.014 A 
ATOM     35  C19 UNK     1      48.890  14.492  -5.230  1.00  0.00     0.001 A 
ATOM     36  C21 UNK     1      48.364  13.826  -4.124  1.00  0.00     0.000 A 
ATOM     37  C20 UNK     1      47.772  12.573  -4.281  1.00  0.00     0.001 A 
ATOM     38  C18 UNK     1      47.706  11.987  -5.545  1.00  0.00     0.014 A 
ENDBRANCH  10  33
TORSDOF 10
ENDMDL
MODEL 15
REMARK VINA RESULT:      -5.8      4.666      6.878
REMARK  10 active torsions:
REMARK  status: ('A' for Active; 'I' for Inactive)
REMARK    1  A    between atoms: O2_2  and  C4_15 
REMARK    2  A    between atoms: O2_2  and  C7_18 
REMARK    3  A    between atoms: O3_3  and  C1_12 
REMARK    4  A    between atoms: O4_4  and  C2_13 
REMARK    5  A    between atoms: O5_5  and  C3_14 
REMARK    6  A    between atoms: O6_6  and  C6_17 
REMARK    7  A    between atoms: O9_9  and  C9_20 
REMARK    8  A    between atoms: O10_10  and  C12_23 
REMARK    9  A    between atoms: C5_16  and  C6_17 
REMARK   10  A    between atoms: C14_25  and  C16_27 
ROOT
ATOM      1  O8  UNK     1      43.222  13.631 -11.920  1.00  0.00    -0.309 OA
ATOM      2  O11 UNK     1      39.441  12.889 -13.245  1.00  0.00    -0.287 OA
ATOM      3  C7  UNK     1      42.833  10.240 -10.643  1.00  0.00     0.110 A 
ATOM      4  C8  UNK     1      43.380  11.489 -10.938  1.00  0.00     0.078 A 
ATOM      5  C9  UNK     1      41.543   9.921 -11.070  1.00  0.00     0.134 A 
ATOM      6  C10 UNK     1      42.632  12.420 -11.661  1.00  0.00     0.096 A 
ATOM      7  C11 UNK     1      41.344  12.100 -12.085  1.00  0.00     0.084 A 
ATOM      8  C12 UNK     1      40.793  10.850 -11.792  1.00  0.00     0.118 A 
ATOM      9  C13 UNK     1      40.578  13.100 -12.844  1.00  0.00     0.190 A 
ATOM     10  C14 UNK     1      42.506  14.573 -12.643  1.00  0.00     0.090 A 
ATOM     11  C15 UNK     1      41.258  14.386 -13.100  1.00  0.00     0.094 A 
ENDROOT
BRANCH   3  12
ATOM     12  O2  UNK     1      43.572   9.337  -9.937  1.00  0.00    -0.315 OA
BRANCH  12  13
ATOM     13  C4  UNK     1      44.240   8.326 -10.693  1.00  0.00     0.299 C 
ATOM     14  O1  UNK     1      43.506   7.106 -10.620  1.00  0.00    -0.340 OA
ATOM     15  C5  UNK     1      44.113   6.063 -11.375  1.00  0.00     0.253 C 
ATOM     16  C3  UNK     1      45.497   5.728 -10.831  1.00  0.00     0.189 C 
ATOM     17  C1  UNK     1      46.373   6.980 -10.771  1.00  0.00     0.183 C 
ATOM     18  C2  UNK     1      45.638   8.142 -10.102  1.00  0.00     0.205 C 
BRANCH  15  19
ATOM     19  C6  UNK     1      43.174   4.916 -11.191  1.00  0.00     0.172 C 
ATOM     20  O7  UNK     1      43.354   3.786 -11.621  1.00  0.00    -0.648 OA
BRANCH  19  21
ATOM     21  O6  UNK     1      42.084   5.298 -10.482  1.00  0.00    -0.774 OA
ATOM     22  H10 UNK     1      42.328   5.676  -9.610  1.00  0.00     0.167 HD
ENDBRANCH  19  21
ENDBRANCH  15  19
BRANCH  16  23
ATOM     23  O5  UNK     1      46.108   4.773 -11.697  1.00  0.00    -0.390 OA
ATOM     24  H8  UNK     1      45.444   4.486 -12.347  1.00  0.00     0.210 HD
ENDBRANCH  16  23
BRANCH  17  25
ATOM     25  O3  UNK     1      47.546   6.662 -10.020  1.00  0.00    -0.390 OA
ATOM     26  H6  UNK     1      47.817   5.762 -10.262  1.00  0.00     0.210 HD
ENDBRANCH  17  25
BRANCH  18  27
ATOM     27  O4  UNK     1      46.374   9.349 -10.309  1.00  0.00    -0.388 OA
ATOM     28  H7  UNK     1      46.995   9.446  -9.568  1.00  0.00     0.210 HD
ENDBRANCH  18  27
ENDBRANCH  12  13
ENDBRANCH   3  12
BRANCH   5  29
ATOM     29  O9  UNK     1      41.015   8.697 -10.777  1.00  0.00    -0.356 OA
ATOM     30  H12 UNK     1      41.663   8.203 -10.244  1.00  0.00     0.218 HD
ENDBRANCH   5  29
BRANCH   8  31
ATOM     31  O10 UNK     1      39.537  10.502 -12.191  1.00  0.00    -0.357 OA
ATOM     32  H13 UNK     1      38.870  11.024 -11.719  1.00  0.00     0.217 HD
ENDBRANCH   8  31
BRANCH  10  33
ATOM     33  C16 UNK     1      43.232  15.841 -12.860  1.00  0.00    -0.002 A 
ATOM     34  C17 UNK     1      43.060  16.552 -14.051  1.00  0.00     0.014 A 
ATOM     35  C19 UNK     1      43.745  17.750 -14.256  1.00  0.00     0.001 A 
ATOM     36  C21 UNK     1      44.603  18.241 -13.272  1.00  0.00     0.000 A 
ATOM     37  C20 UNK     1      44.777  17.534 -12.082  1.00  0.00     0.001 A 
ATOM     38  C18 UNK     1      44.092  16.336 -11.877  1.00  0.00     0.014 A 
ENDBRANCH  10  33
TORSDOF 10
ENDMDL
MODEL 16
REMARK VINA RESULT:      -5.8      1.779      3.300
REMARK  10 active torsions:
REMARK  status: ('A' for Active; 'I' for Inactive)
REMARK    1  A    between atoms: O2_2  and  C4_15 
REMARK    2  A    between atoms: O2_2  and  C7_18 
REMARK    3  A    between atoms: O3_3  and  C1_12 
REMARK    4  A    between atoms: O4_4  and  C2_13 
REMARK    5  A    between atoms: O5_5  and  C3_14 
REMARK    6  A    between atoms: O6_6  and  C6_17 
REMARK    7  A    between atoms: O9_9  and  C9_20 
REMARK    8  A    between atoms: O10_10  and  C12_23 
REMARK    9  A    between atoms: C5_16  and  C6_17 
REMARK   10  A    between atoms: C14_25  and  C16_27 
ROOT
ATOM      1  O8  UNK     1      44.760  11.390 -10.605  1.00  0.00    -0.309 OA
ATOM      2  O11 UNK     1      46.779  14.015 -12.979  1.00  0.00    -0.287 OA
ATOM      3  C7  UNK     1      48.038  11.169  -9.029  1.00  0.00     0.110 A 
ATOM      4  C8  UNK     1      46.689  10.958  -9.313  1.00  0.00     0.078 A 
ATOM      5  C9  UNK     1      48.787  12.057  -9.803  1.00  0.00     0.134 A 
ATOM      6  C10 UNK     1      46.089  11.639 -10.374  1.00  0.00     0.096 A 
ATOM      7  C11 UNK     1      46.839  12.524 -11.146  1.00  0.00     0.084 A 
ATOM      8  C12 UNK     1      48.190  12.738 -10.865  1.00  0.00     0.118 A 
ATOM      9  C13 UNK     1      46.182  13.226 -12.259  1.00  0.00     0.190 A 
ATOM     10  C14 UNK     1      44.136  12.057 -11.648  1.00  0.00     0.090 A 
ATOM     11  C15 UNK     1      44.750  12.928 -12.464  1.00  0.00     0.094 A 
ENDROOT
BRANCH   3  12
ATOM     12  O2  UNK     1      48.615  10.499  -7.990  1.00  0.00    -0.315 OA
BRANCH  12  13
ATOM     13  C4  UNK     1      48.382  11.025  -6.683  1.00  0.00     0.299 C 
ATOM     14  O1  UNK     1      48.874  12.360  -6.606  1.00  0.00    -0.340 OA
ATOM     15  C5  UNK     1      48.650  12.948  -5.329  1.00  0.00     0.253 C 
ATOM     16  C3  UNK     1      49.392  12.186  -4.238  1.00  0.00     0.189 C 
ATOM     17  C1  UNK     1      49.021  10.703  -4.263  1.00  0.00     0.183 C 
ATOM     18  C2  UNK     1      49.109  10.130  -5.678  1.00  0.00     0.205 C 
BRANCH  15  19
ATOM     19  C6  UNK     1      49.197  14.329  -5.485  1.00  0.00     0.172 C 
ATOM     20  O7  UNK     1      48.971  15.263  -4.731  1.00  0.00    -0.648 OA
BRANCH  19  21
ATOM     21  O6  UNK     1      49.984  14.410  -6.586  1.00  0.00    -0.774 OA
ATOM     22  H10 UNK     1      50.854  14.817  -6.387  1.00  0.00     0.167 HD
ENDBRANCH  19  21
ENDBRANCH  15  19
BRANCH  16  23
ATOM     23  O5  UNK     1      49.032  12.735  -2.972  1.00  0.00    -0.390 OA
ATOM     24  H8  UNK     1      48.514  12.067  -2.490  1.00  0.00     0.210 HD
ENDBRANCH  16  23
BRANCH  17  25
ATOM     25  O3  UNK     1      49.930  10.005  -3.410  1.00  0.00    -0.390 OA
ATOM     26  H6  UNK     1      50.710  10.570  -3.283  1.00  0.00     0.210 HD
ENDBRANCH  17  25
BRANCH  18  27
ATOM     27  O4  UNK     1      48.499   8.839  -5.706  1.00  0.00    -0.388 OA
ATOM     28  H7  UNK     1      48.144   8.700  -6.599  1.00  0.00     0.210 HD
ENDBRANCH  18  27
ENDBRANCH  12  13
ENDBRANCH   3  12
BRANCH   5  29
ATOM     29  O9  UNK     1      50.107  12.257  -9.519  1.00  0.00    -0.356 OA
ATOM     30  H12 UNK     1      50.604  12.265 -10.356  1.00  0.00     0.218 HD
ENDBRANCH   5  29
BRANCH   8  31
ATOM     31  O10 UNK     1      48.954  13.596 -11.598  1.00  0.00    -0.357 OA
ATOM     32  H13 UNK     1      49.108  14.420 -11.111  1.00  0.00     0.217 HD
ENDBRANCH   8  31
BRANCH  10  33
ATOM     33  C16 UNK     1      42.708  11.713 -11.812  1.00  0.00    -0.002 A 
ATOM     34  C17 UNK     1      42.187  10.573 -11.194  1.00  0.00     0.014 A 
ATOM     35  C19 UNK     1      40.838  10.249 -11.348  1.00  0.00     0.001 A 
ATOM     36  C21 UNK     1      40.008  11.063 -12.117  1.00  0.00     0.000 A 
ATOM     37  C20 UNK     1      40.525  12.202 -12.735  1.00  0.00     0.001 A 
ATOM     38  C18 UNK     1      41.874  12.526 -12.581  1.00  0.00     0.014 A 
ENDBRANCH  10  33
TORSDOF 10
ENDMDL
MODEL 17
REMARK VINA RESULT:      -5.8      3.415      6.273
REMARK  10 active torsions:
REMARK  status: ('A' for Active; 'I' for Inactive)
REMARK    1  A    between atoms: O2_2  and  C4_15 
REMARK    2  A    between atoms: O2_2  and  C7_18 
REMARK    3  A    between atoms: O3_3  and  C1_12 
REMARK    4  A    between atoms: O4_4  and  C2_13 
REMARK    5  A    between atoms: O5_5  and  C3_14 
REMARK    6  A    between atoms: O6_6  and  C6_17 
REMARK    7  A    between atoms: O9_9  and  C9_20 
REMARK    8  A    between atoms: O10_10  and  C12_23 
REMARK    9  A    between atoms: C5_16  and  C6_17 
REMARK   10  A    between atoms: C14_25  and  C16_27 
ROOT
ATOM      1  O8  UNK     1      46.139   7.132 -10.358  1.00  0.00    -0.309 OA
ATOM      2  O11 UNK     1      42.076   7.431 -10.304  1.00  0.00    -0.287 OA
ATOM      3  C7  UNK     1      45.840  10.507  -9.018  1.00  0.00     0.110 A 
ATOM      4  C8  UNK     1      46.387   9.312  -9.486  1.00  0.00     0.078 A 
ATOM      5  C9  UNK     1      44.455  10.674  -8.972  1.00  0.00     0.134 A 
ATOM      6  C10 UNK     1      45.544   8.282  -9.908  1.00  0.00     0.096 A 
ATOM      7  C11 UNK     1      44.161   8.452  -9.861  1.00  0.00     0.084 A 
ATOM      8  C12 UNK     1      43.611   9.647  -9.394  1.00  0.00     0.118 A 
ATOM      9  C13 UNK     1      43.297   7.351 -10.314  1.00  0.00     0.190 A 
ATOM     10  C14 UNK     1      45.326   6.089 -10.777  1.00  0.00     0.090 A 
ATOM     11  C15 UNK     1      43.985   6.132 -10.785  1.00  0.00     0.094 A 
ENDROOT
BRANCH   3  12
ATOM     12  O2  UNK     1      46.672  11.507  -8.608  1.00  0.00    -0.315 OA
BRANCH  12  13
ATOM     13  C4  UNK     1      47.814  11.116  -7.844  1.00  0.00     0.299 C 
ATOM     14  O1  UNK     1      47.628  11.481  -6.479  1.00  0.00    -0.340 OA
ATOM     15  C5  UNK     1      48.727  11.095  -5.661  1.00  0.00     0.253 C 
ATOM     16  C3  UNK     1      50.005  11.805  -6.092  1.00  0.00     0.189 C 
ATOM     17  C1  UNK     1      50.282  11.569  -7.577  1.00  0.00     0.183 C 
ATOM     18  C2  UNK     1      49.036  11.829  -8.424  1.00  0.00     0.205 C 
BRANCH  15  19
ATOM     19  C6  UNK     1      48.308  11.531  -4.295  1.00  0.00     0.172 C 
ATOM     20  O7  UNK     1      47.612  12.506  -4.052  1.00  0.00    -0.648 OA
BRANCH  19  21
ATOM     21  O6  UNK     1      48.808  10.696  -3.352  1.00  0.00    -0.774 OA
ATOM     22  H10 UNK     1      48.536   9.766  -3.504  1.00  0.00     0.167 HD
ENDBRANCH  19  21
ENDBRANCH  15  19
BRANCH  16  23
ATOM     23  O5  UNK     1      51.094  11.289  -5.328  1.00  0.00    -0.390 OA
ATOM     24  H8  UNK     1      51.030  11.653  -4.428  1.00  0.00     0.210 HD
ENDBRANCH  16  23
BRANCH  17  25
ATOM     25  O3  UNK     1      51.325  12.458  -7.979  1.00  0.00    -0.390 OA
ATOM     26  H6  UNK     1      51.265  13.254  -7.426  1.00  0.00     0.210 HD
ENDBRANCH  17  25
BRANCH  18  27
ATOM     27  O4  UNK     1      49.253  11.340  -9.748  1.00  0.00    -0.388 OA
ATOM     28  H7  UNK     1      49.221  12.100 -10.352  1.00  0.00     0.210 HD
ENDBRANCH  18  27
ENDBRANCH  12  13
ENDBRANCH   3  12
BRANCH   5  29
ATOM     29  O9  UNK     1      43.929  11.847  -8.513  1.00  0.00    -0.356 OA
ATOM     30  H12 UNK     1      43.144  11.642  -7.976  1.00  0.00     0.218 HD
ENDBRANCH   5  29
BRANCH   8  31
ATOM     31  O10 UNK     1      42.264   9.847  -9.334  1.00  0.00    -0.357 OA
ATOM     32  H13 UNK     1      41.912  10.084 -10.205  1.00  0.00     0.217 HD
ENDBRANCH   8  31
BRANCH  10  33
ATOM     33  C16 UNK     1      46.069   4.901 -11.245  1.00  0.00    -0.002 A 
ATOM     34  C17 UNK     1      46.412   4.775 -12.594  1.00  0.00     0.014 A 
ATOM     35  C19 UNK     1      47.114   3.653 -13.036  1.00  0.00     0.001 A 
ATOM     36  C21 UNK     1      47.476   2.655 -12.132  1.00  0.00     0.000 A 
ATOM     37  C20 UNK     1      47.135   2.777 -10.784  1.00  0.00     0.001 A 
ATOM     38  C18 UNK     1      46.432   3.899 -10.343  1.00  0.00     0.014 A 
ENDBRANCH  10  33
TORSDOF 10
ENDMDL
MODEL 18
REMARK VINA RESULT:      -5.6      3.222      8.624
REMARK  10 active torsions:
REMARK  status: ('A' for Active; 'I' for Inactive)
REMARK    1  A    between atoms: O2_2  and  C4_15 
REMARK    2  A    between atoms: O2_2  and  C7_18 
REMARK    3  A    between atoms: O3_3  and  C1_12 
REMARK    4  A    between atoms: O4_4  and  C2_13 
REMARK    5  A    between atoms: O5_5  and  C3_14 
REMARK    6  A    between atoms: O6_6  and  C6_17 
REMARK    7  A    between atoms: O9_9  and  C9_20 
REMARK    8  A    between atoms: O10_10  and  C12_23 
REMARK    9  A    between atoms: C5_16  and  C6_17 
REMARK   10  A    between atoms: C14_25  and  C16_27 
ROOT
ATOM      1  O8  UNK     1      47.277  10.998  -7.662  1.00  0.00    -0.309 OA
ATOM      2  O11 UNK     1      49.599  13.167 -10.213  1.00  0.00    -0.287 OA
ATOM      3  C7  UNK     1      45.293  10.614 -10.695  1.00  0.00     0.110 A 
ATOM      4  C8  UNK     1      45.723  10.510  -9.372  1.00  0.00     0.078 A 
ATOM      5  C9  UNK     1      46.043  11.342 -11.620  1.00  0.00     0.134 A 
ATOM      6  C10 UNK     1      46.906  11.135  -8.975  1.00  0.00     0.096 A 
ATOM      7  C11 UNK     1      47.653  11.861  -9.901  1.00  0.00     0.084 A 
ATOM      8  C12 UNK     1      47.226  11.968 -11.227  1.00  0.00     0.118 A 
ATOM      9  C13 UNK     1      48.895  12.512  -9.456  1.00  0.00     0.190 A 
ATOM     10  C14 UNK     1      48.452  11.602  -7.242  1.00  0.00     0.090 A 
ATOM     11  C15 UNK     1      49.253  12.331  -8.034  1.00  0.00     0.094 A 
ENDROOT
BRANCH   3  12
ATOM     12  O2  UNK     1      44.135   9.999 -11.072  1.00  0.00    -0.315 OA
BRANCH  12  13
ATOM     13  C4  UNK     1      43.798   8.795 -10.384  1.00  0.00     0.299 C 
ATOM     14  O1  UNK     1      44.338   7.675 -11.081  1.00  0.00    -0.340 OA
ATOM     15  C5  UNK     1      44.052   6.442 -10.429  1.00  0.00     0.253 C 
ATOM     16  C3  UNK     1      42.551   6.189 -10.371  1.00  0.00     0.189 C 
ATOM     17  C1  UNK     1      41.827   7.366  -9.718  1.00  0.00     0.183 C 
ATOM     18  C2  UNK     1      42.273   8.698 -10.322  1.00  0.00     0.205 C 
BRANCH  15  19
ATOM     19  C6  UNK     1      44.733   5.431 -11.293  1.00  0.00     0.172 C 
ATOM     20  O7  UNK     1      44.953   5.563 -12.488  1.00  0.00    -0.648 OA
BRANCH  19  21
ATOM     21  O6  UNK     1      45.073   4.336 -10.571  1.00  0.00    -0.774 OA
ATOM     22  H10 UNK     1      44.834   4.432  -9.624  1.00  0.00     0.167 HD
ENDBRANCH  19  21
ENDBRANCH  15  19
BRANCH  16  23
ATOM     23  O5  UNK     1      42.316   5.012  -9.599  1.00  0.00    -0.390 OA
ATOM     24  H8  UNK     1      43.169   4.708  -9.245  1.00  0.00     0.210 HD
ENDBRANCH  16  23
BRANCH  17  25
ATOM     25  O3  UNK     1      40.424   7.195  -9.927  1.00  0.00    -0.390 OA
ATOM     26  H6  UNK     1      40.264   6.251 -10.093  1.00  0.00     0.210 HD
ENDBRANCH  17  25
BRANCH  18  27
ATOM     27  O4  UNK     1      41.790   9.771  -9.512  1.00  0.00    -0.388 OA
ATOM     28  H7  UNK     1      41.205   9.390  -8.837  1.00  0.00     0.210 HD
ENDBRANCH  18  27
ENDBRANCH  12  13
ENDBRANCH   3  12
BRANCH   5  29
ATOM     29  O9  UNK     1      45.616  11.439 -12.913  1.00  0.00    -0.356 OA
ATOM     30  H12 UNK     1      46.303  11.894 -13.431  1.00  0.00     0.218 HD
ENDBRANCH   5  29
BRANCH   8  31
ATOM     31  O10 UNK     1      47.931  12.669 -12.159  1.00  0.00    -0.357 OA
ATOM     32  H13 UNK     1      48.653  12.132 -12.520  1.00  0.00     0.217 HD
ENDBRANCH   8  31
BRANCH  10  33
ATOM     33  C16 UNK     1      48.754  11.395  -5.810  1.00  0.00    -0.002 A 
ATOM     34  C17 UNK     1      48.216  12.254  -4.848  1.00  0.00     0.014 A 
ATOM     35  C19 UNK     1      48.500  12.058  -3.497  1.00  0.00     0.001 A 
ATOM     36  C21 UNK     1      49.323  11.003  -3.103  1.00  0.00     0.000 A 
ATOM     37  C20 UNK     1      49.862  10.143  -4.061  1.00  0.00     0.001 A 
ATOM     38  C18 UNK     1      49.577  10.340  -5.412  1.00  0.00     0.014 A 
ENDBRANCH  10  33
TORSDOF 10
ENDMDL
MODEL 19
REMARK VINA RESULT:      -5.6      4.598      7.576
REMARK  10 active torsions:
REMARK  status: ('A' for Active; 'I' for Inactive)
REMARK    1  A    between atoms: O2_2  and  C4_15 
REMARK    2  A    between atoms: O2_2  and  C7_18 
REMARK    3  A    between atoms: O3_3  and  C1_12 
REMARK    4  A    between atoms: O4_4  and  C2_13 
REMARK    5  A    between atoms: O5_5  and  C3_14 
REMARK    6  A    between atoms: O6_6  and  C6_17 
REMARK    7  A    between atoms: O9_9  and  C9_20 
REMARK    8  A    between atoms: O10_10  and  C12_23 
REMARK    9  A    between atoms: C5_16  and  C6_17 
REMARK   10  A    between atoms: C14_25  and  C16_27 
ROOT
ATOM      1  O8  UNK     1      48.873   8.685  -6.404  1.00  0.00    -0.309 OA
ATOM      2  O11 UNK     1      47.795  12.104  -8.341  1.00  0.00    -0.287 OA
ATOM      3  C7  UNK     1      49.229  11.035  -3.641  1.00  0.00     0.110 A 
ATOM      4  C8  UNK     1      49.224   9.852  -4.382  1.00  0.00     0.078 A 
ATOM      5  C9  UNK     1      48.869  12.241  -4.245  1.00  0.00     0.134 A 
ATOM      6  C10 UNK     1      48.858   9.878  -5.728  1.00  0.00     0.096 A 
ATOM      7  C11 UNK     1      48.499  11.084  -6.328  1.00  0.00     0.084 A 
ATOM      8  C12 UNK     1      48.502  12.270  -5.590  1.00  0.00     0.118 A 
ATOM      9  C13 UNK     1      48.119  11.083  -7.749  1.00  0.00     0.190 A 
ATOM     10  C14 UNK     1      48.506   8.680  -7.742  1.00  0.00     0.090 A 
ATOM     11  C15 UNK     1      48.147   9.773  -8.431  1.00  0.00     0.094 A 
ENDROOT
BRANCH   3  12
ATOM     12  O2  UNK     1      49.588  10.999  -2.326  1.00  0.00    -0.315 OA
BRANCH  12  13
ATOM     13  C4  UNK     1      50.942  11.339  -2.023  1.00  0.00     0.299 C 
ATOM     14  O1  UNK     1      51.818  10.350  -2.560  1.00  0.00    -0.340 OA
ATOM     15  C5  UNK     1      53.187  10.647  -2.309  1.00  0.00     0.253 C 
ATOM     16  C3  UNK     1      53.478  10.667  -0.813  1.00  0.00     0.189 C 
ATOM     17  C1  UNK     1      52.538  11.632  -0.091  1.00  0.00     0.183 C 
ATOM     18  C2  UNK     1      51.083  11.406  -0.502  1.00  0.00     0.205 C 
BRANCH  15  19
ATOM     19  C6  UNK     1      53.910   9.525  -2.980  1.00  0.00     0.172 C 
ATOM     20  O7  UNK     1      55.124   9.390  -3.010  1.00  0.00    -0.648 OA
BRANCH  19  21
ATOM     21  O6  UNK     1      53.033   8.669  -3.559  1.00  0.00    -0.774 OA
ATOM     22  H10 UNK     1      52.157   9.086  -3.707  1.00  0.00     0.167 HD
ENDBRANCH  19  21
ENDBRANCH  15  19
BRANCH  16  23
ATOM     23  O5  UNK     1      54.825  11.092  -0.615  1.00  0.00    -0.390 OA
ATOM     24  H8  UNK     1      54.865  11.589   0.221  1.00  0.00     0.210 HD
ENDBRANCH  16  23
BRANCH  17  25
ATOM     25  O3  UNK     1      52.675  11.414   1.314  1.00  0.00    -0.390 OA
ATOM     26  H6  UNK     1      53.617  11.270   1.501  1.00  0.00     0.210 HD
ENDBRANCH  17  25
BRANCH  18  27
ATOM     27  O4  UNK     1      50.282  12.488  -0.026  1.00  0.00    -0.388 OA
ATOM     28  H7  UNK     1      49.915  12.226   0.834  1.00  0.00     0.210 HD
ENDBRANCH  18  27
ENDBRANCH  12  13
ENDBRANCH   3  12
BRANCH   5  29
ATOM     29  O9  UNK     1      48.876  13.393  -3.513  1.00  0.00    -0.356 OA
ATOM     30  H12 UNK     1      48.715  13.167  -2.581  1.00  0.00     0.218 HD
ENDBRANCH   5  29
BRANCH   8  31
ATOM     31  O10 UNK     1      48.157  13.467  -6.144  1.00  0.00    -0.357 OA
ATOM     32  H13 UNK     1      48.946  13.985  -6.361  1.00  0.00     0.217 HD
ENDBRANCH   8  31
BRANCH  10  33
ATOM     33  C16 UNK     1      48.562   7.345  -8.373  1.00  0.00    -0.002 A 
ATOM     34  C17 UNK     1      49.244   6.300  -7.745  1.00  0.00     0.014 A 
ATOM     35  C19 UNK     1      49.295   5.039  -8.341  1.00  0.00     0.001 A 
ATOM     36  C21 UNK     1      48.665   4.820  -9.566  1.00  0.00     0.000 A 
ATOM     37  C20 UNK     1      47.984   5.862 -10.196  1.00  0.00     0.001 A 
ATOM     38  C18 UNK     1      47.932   7.122  -9.599  1.00  0.00     0.014 A 
ENDBRANCH  10  33
TORSDOF 10
ENDMDL
