MODEL 1
REMARK VINA RESULT:      -6.5      0.000      0.000
REMARK  10 active torsions:
REMARK  status: ('A' for Active; 'I' for Inactive)
REMARK    1  A    between atoms: O2_2  and  C4_15 
REMARK    2  A    between atoms: O2_2  and  C7_18 
REMARK    3  A    between atoms: O3_3  and  C1_12 
REMARK    4  A    between atoms: O4_4  and  C2_13 
REMARK    5  A    between atoms: O5_5  and  C3_14 
REMARK    6  A    between atoms: O6_6  and  C6_17 
REMARK    7  A    between atoms: O9_9  and  C9_20 
REMARK    8  A    between atoms: O10_10  and  C12_23 
REMARK    9  A    between atoms: C5_16  and  C6_17 
REMARK   10  A    between atoms: C14_25  and  C16_27 
ROOT
ATOM      1  O8  UNK     1      44.631   8.920  -9.480  1.00  0.00    -0.309 OA
ATOM      2  O11 UNK     1      46.167   5.712 -11.467  1.00  0.00    -0.287 OA
ATOM      3  C7  UNK     1      48.174   9.541  -8.898  1.00  0.00     0.110 A 
ATOM      4  C8  UNK     1      46.786   9.677  -8.881  1.00  0.00     0.078 A 
ATOM      5  C9  UNK     1      48.765   8.465  -9.562  1.00  0.00     0.134 A 
ATOM      6  C10 UNK     1      45.988   8.734  -9.531  1.00  0.00     0.096 A 
ATOM      7  C11 UNK     1      46.581   7.661 -10.194  1.00  0.00     0.084 A 
ATOM      8  C12 UNK     1      47.970   7.521 -10.213  1.00  0.00     0.118 A 
ATOM      9  C13 UNK     1      45.716   6.680 -10.869  1.00  0.00     0.190 A 
ATOM     10  C14 UNK     1      43.814   8.003 -10.123  1.00  0.00     0.090 A 
ATOM     11  C15 UNK     1      44.262   6.927 -10.788  1.00  0.00     0.094 A 
ENDROOT
BRANCH   3  12
ATOM     12  O2  UNK     1      48.945  10.468  -8.260  1.00  0.00    -0.315 OA
BRANCH  12  13
ATOM     13  C4  UNK     1      48.461  10.947  -7.004  1.00  0.00     0.299 C 
ATOM     14  O1  UNK     1      48.786  12.327  -6.858  1.00  0.00    -0.340 OA
ATOM     15  C5  UNK     1      48.308  12.869  -5.632  1.00  0.00     0.253 C 
ATOM     16  C3  UNK     1      48.958  12.178  -4.438  1.00  0.00     0.189 C 
ATOM     17  C1  UNK     1      48.761  10.664  -4.515  1.00  0.00     0.183 C 
ATOM     18  C2  UNK     1      49.123  10.124  -5.899  1.00  0.00     0.205 C 
BRANCH  15  19
ATOM     19  C6  UNK     1      48.717  14.304  -5.707  1.00  0.00     0.172 C 
ATOM     20  O7  UNK     1      48.175  15.221  -5.108  1.00  0.00    -0.648 OA
BRANCH  19  21
ATOM     21  O6  UNK     1      49.777  14.456  -6.538  1.00  0.00    -0.774 OA
ATOM     22  H10 UNK     1      49.906  15.392  -6.800  1.00  0.00     0.167 HD
ENDBRANCH  19  21
ENDBRANCH  15  19
BRANCH  16  23
ATOM     23  O5  UNK     1      48.353  12.667  -3.242  1.00  0.00    -0.390 OA
ATOM     24  H8  UNK     1      47.628  12.064  -3.002  1.00  0.00     0.210 HD
ENDBRANCH  16  23
BRANCH  17  25
ATOM     25  O3  UNK     1      49.602  10.058  -3.532  1.00  0.00    -0.390 OA
ATOM     26  H6  UNK     1      49.382  10.452  -2.671  1.00  0.00     0.210 HD
ENDBRANCH  17  25
BRANCH  18  27
ATOM     27  O4  UNK     1      48.671   8.774  -6.014  1.00  0.00    -0.388 OA
ATOM     28  H7  UNK     1      47.754   8.743  -5.693  1.00  0.00     0.210 HD
ENDBRANCH  18  27
ENDBRANCH  12  13
ENDBRANCH   3  12
BRANCH   5  29
ATOM     29  O9  UNK     1      50.124   8.339  -9.574  1.00  0.00    -0.356 OA
ATOM     30  H12 UNK     1      50.506   9.165  -9.919  1.00  0.00     0.218 HD
ENDBRANCH   5  29
BRANCH   8  31
ATOM     31  O10 UNK     1      48.584   6.484 -10.851  1.00  0.00    -0.357 OA
ATOM     32  H13 UNK     1      47.932   5.921 -11.296  1.00  0.00     0.217 HD
ENDBRANCH   8  31
BRANCH  10  33
ATOM     33  C16 UNK     1      42.371   8.296 -10.001  1.00  0.00    -0.002 A 
ATOM     34  C17 UNK     1      41.874   9.546 -10.379  1.00  0.00     0.014 A 
ATOM     35  C19 UNK     1      40.511   9.822 -10.265  1.00  0.00     0.001 A 
ATOM     36  C21 UNK     1      39.641   8.849  -9.774  1.00  0.00     0.000 A 
ATOM     37  C20 UNK     1      40.134   7.600  -9.395  1.00  0.00     0.001 A 
ATOM     38  C18 UNK     1      41.496   7.324  -9.510  1.00  0.00     0.014 A 
ENDBRANCH  10  33
TORSDOF 10
ENDMDL
MODEL 2
REMARK VINA RESULT:      -5.8      1.119      2.730
REMARK  10 active torsions:
REMARK  status: ('A' for Active; 'I' for Inactive)
REMARK    1  A    between atoms: O2_2  and  C4_15 
REMARK    2  A    between atoms: O2_2  and  C7_18 
REMARK    3  A    between atoms: O3_3  and  C1_12 
REMARK    4  A    between atoms: O4_4  and  C2_13 
REMARK    5  A    between atoms: O5_5  and  C3_14 
REMARK    6  A    between atoms: O6_6  and  C6_17 
REMARK    7  A    between atoms: O9_9  and  C9_20 
REMARK    8  A    between atoms: O10_10  and  C12_23 
REMARK    9  A    between atoms: C5_16  and  C6_17 
REMARK   10  A    between atoms: C14_25  and  C16_27 
ROOT
ATOM      1  O8  UNK     1      44.689   9.940  -9.214  1.00  0.00    -0.309 OA
ATOM      2  O11 UNK     1      47.198   7.023 -10.557  1.00  0.00    -0.287 OA
ATOM      3  C7  UNK     1      47.873  11.584  -8.548  1.00  0.00     0.110 A 
ATOM      4  C8  UNK     1      46.502  11.336  -8.631  1.00  0.00     0.078 A 
ATOM      5  C9  UNK     1      48.786  10.627  -8.992  1.00  0.00     0.134 A 
ATOM      6  C10 UNK     1      46.047  10.127  -9.159  1.00  0.00     0.096 A 
ATOM      7  C11 UNK     1      46.961   9.173  -9.602  1.00  0.00     0.084 A 
ATOM      8  C12 UNK     1      48.334   9.417  -9.521  1.00  0.00     0.118 A 
ATOM      9  C13 UNK     1      46.453   7.907 -10.153  1.00  0.00     0.190 A 
ATOM     10  C14 UNK     1      44.208   8.751  -9.741  1.00  0.00     0.090 A 
ATOM     11  C15 UNK     1      44.985   7.755 -10.194  1.00  0.00     0.094 A 
ENDROOT
BRANCH   3  12
ATOM     12  O2  UNK     1      48.307  12.769  -8.031  1.00  0.00    -0.315 OA
BRANCH  12  13
ATOM     13  C4  UNK     1      49.068  12.698  -6.824  1.00  0.00     0.299 C 
ATOM     14  O1  UNK     1      48.964  11.391  -6.265  1.00  0.00    -0.340 OA
ATOM     15  C5  UNK     1      49.722  11.252  -5.068  1.00  0.00     0.253 C 
ATOM     16  C3  UNK     1      49.209  12.192  -3.983  1.00  0.00     0.189 C 
ATOM     17  C1  UNK     1      49.184  13.636  -4.484  1.00  0.00     0.183 C 
ATOM     18  C2  UNK     1      48.510  13.739  -5.853  1.00  0.00     0.205 C 
BRANCH  15  19
ATOM     19  C6  UNK     1      49.502   9.825  -4.687  1.00  0.00     0.172 C 
ATOM     20  O7  UNK     1      50.074   9.246  -3.775  1.00  0.00    -0.648 OA
BRANCH  19  21
ATOM     21  O6  UNK     1      48.579   9.249  -5.495  1.00  0.00    -0.774 OA
ATOM     22  H10 UNK     1      47.806   9.835  -5.643  1.00  0.00     0.167 HD
ENDBRANCH  19  21
ENDBRANCH  15  19
BRANCH  16  23
ATOM     23  O5  UNK     1      50.079  12.106  -2.855  1.00  0.00    -0.390 OA
ATOM     24  H8  UNK     1      49.734  11.417  -2.261  1.00  0.00     0.210 HD
ENDBRANCH  16  23
BRANCH  17  25
ATOM     25  O3  UNK     1      48.458  14.421  -3.536  1.00  0.00    -0.390 OA
ATOM     26  H6  UNK     1      47.886  15.029  -4.032  1.00  0.00     0.210 HD
ENDBRANCH  17  25
BRANCH  18  27
ATOM     27  O4  UNK     1      48.749  15.036  -6.402  1.00  0.00    -0.388 OA
ATOM     28  H7  UNK     1      47.922  15.542  -6.331  1.00  0.00     0.210 HD
ENDBRANCH  18  27
ENDBRANCH  12  13
ENDBRANCH   3  12
BRANCH   5  29
ATOM     29  O9  UNK     1      50.125  10.877  -8.908  1.00  0.00    -0.356 OA
ATOM     30  H12 UNK     1      50.355  11.008  -7.971  1.00  0.00     0.218 HD
ENDBRANCH   5  29
BRANCH   8  31
ATOM     31  O10 UNK     1      49.256   8.508  -9.944  1.00  0.00    -0.357 OA
ATOM     32  H13 UNK     1      49.541   7.941  -9.211  1.00  0.00     0.217 HD
ENDBRANCH   8  31
BRANCH  10  33
ATOM     33  C16 UNK     1      42.734   8.652  -9.749  1.00  0.00    -0.002 A 
ATOM     34  C17 UNK     1      41.959   9.748 -10.138  1.00  0.00     0.014 A 
ATOM     35  C19 UNK     1      40.567   9.653 -10.146  1.00  0.00     0.001 A 
ATOM     36  C21 UNK     1      39.946   8.464  -9.766  1.00  0.00     0.000 A 
ATOM     37  C20 UNK     1      40.716   7.368  -9.378  1.00  0.00     0.001 A 
ATOM     38  C18 UNK     1      42.108   7.462  -9.369  1.00  0.00     0.014 A 
ENDBRANCH  10  33
TORSDOF 10
ENDMDL
MODEL 3
REMARK VINA RESULT:      -5.8      2.144      2.995
REMARK  10 active torsions:
REMARK  status: ('A' for Active; 'I' for Inactive)
REMARK    1  A    between atoms: O2_2  and  C4_15 
REMARK    2  A    between atoms: O2_2  and  C7_18 
REMARK    3  A    between atoms: O3_3  and  C1_12 
REMARK    4  A    between atoms: O4_4  and  C2_13 
REMARK    5  A    between atoms: O5_5  and  C3_14 
REMARK    6  A    between atoms: O6_6  and  C6_17 
REMARK    7  A    between atoms: O9_9  and  C9_20 
REMARK    8  A    between atoms: O10_10  and  C12_23 
REMARK    9  A    between atoms: C5_16  and  C6_17 
REMARK   10  A    between atoms: C14_25  and  C16_27 
ROOT
ATOM      1  O8  UNK     1      44.131   9.580  -9.043  1.00  0.00    -0.309 OA
ATOM      2  O11 UNK     1      44.250  12.730 -11.624  1.00  0.00    -0.287 OA
ATOM      3  C7  UNK     1      47.466  10.825  -8.260  1.00  0.00     0.110 A 
ATOM      4  C8  UNK     1      46.304  10.052  -8.248  1.00  0.00     0.078 A 
ATOM      5  C9  UNK     1      47.570  11.919  -9.120  1.00  0.00     0.134 A 
ATOM      6  C10 UNK     1      45.246  10.376  -9.099  1.00  0.00     0.096 A 
ATOM      7  C11 UNK     1      45.354  11.469  -9.957  1.00  0.00     0.084 A 
ATOM      8  C12 UNK     1      46.515  12.246  -9.972  1.00  0.00     0.118 A 
ATOM      9  C13 UNK     1      44.224  11.788 -10.844  1.00  0.00     0.190 A 
ATOM     10  C14 UNK     1      43.061   9.883  -9.872  1.00  0.00     0.090 A 
ATOM     11  C15 UNK     1      43.046  10.903 -10.744  1.00  0.00     0.094 A 
ENDROOT
BRANCH   3  12
ATOM     12  O2  UNK     1      48.493  10.499  -7.425  1.00  0.00    -0.315 OA
BRANCH  12  13
ATOM     13  C4  UNK     1      48.363  10.906  -6.062  1.00  0.00     0.299 C 
ATOM     14  O1  UNK     1      48.881  12.224  -5.901  1.00  0.00    -0.340 OA
ATOM     15  C5  UNK     1      48.758  12.695  -4.564  1.00  0.00     0.253 C 
ATOM     16  C3  UNK     1      49.564  11.829  -3.602  1.00  0.00     0.189 C 
ATOM     17  C1  UNK     1      49.168  10.359  -3.734  1.00  0.00     0.183 C 
ATOM     18  C2  UNK     1      49.145   9.917  -5.197  1.00  0.00     0.205 C 
BRANCH  15  19
ATOM     19  C6  UNK     1      49.316  14.079  -4.634  1.00  0.00     0.172 C 
ATOM     20  O7  UNK     1      50.058  14.493  -5.513  1.00  0.00    -0.648 OA
BRANCH  19  21
ATOM     21  O6  UNK     1      48.890  14.821  -3.583  1.00  0.00    -0.774 OA
ATOM     22  H10 UNK     1      48.067  15.312  -3.791  1.00  0.00     0.167 HD
ENDBRANCH  19  21
ENDBRANCH  15  19
BRANCH  16  23
ATOM     23  O5  UNK     1      49.305  12.264  -2.269  1.00  0.00    -0.390 OA
ATOM     24  H8  UNK     1      48.390  12.591  -2.230  1.00  0.00     0.210 HD
ENDBRANCH  16  23
BRANCH  17  25
ATOM     25  O3  UNK     1      50.123   9.577  -3.015  1.00  0.00    -0.390 OA
ATOM     26  H6  UNK     1      49.862   9.577  -2.080  1.00  0.00     0.210 HD
ENDBRANCH  17  25
BRANCH  18  27
ATOM     27  O4  UNK     1      48.514   8.639  -5.296  1.00  0.00    -0.388 OA
ATOM     28  H7  UNK     1      47.553   8.783  -5.271  1.00  0.00     0.210 HD
ENDBRANCH  18  27
ENDBRANCH  12  13
ENDBRANCH   3  12
BRANCH   5  29
ATOM     29  O9  UNK     1      48.710  12.670  -9.125  1.00  0.00    -0.356 OA
ATOM     30  H12 UNK     1      49.441  12.118  -9.455  1.00  0.00     0.218 HD
ENDBRANCH   5  29
BRANCH   8  31
ATOM     31  O10 UNK     1      46.654  13.321 -10.797  1.00  0.00    -0.357 OA
ATOM     32  H13 UNK     1      46.567  13.056 -11.725  1.00  0.00     0.217 HD
ENDBRANCH   8  31
BRANCH  10  33
ATOM     33  C16 UNK     1      41.916   8.960  -9.734  1.00  0.00    -0.002 A 
ATOM     34  C17 UNK     1      42.135   7.599  -9.508  1.00  0.00     0.014 A 
ATOM     35  C19 UNK     1      41.053   6.728  -9.377  1.00  0.00     0.001 A 
ATOM     36  C21 UNK     1      39.749   7.215  -9.471  1.00  0.00     0.000 A 
ATOM     37  C20 UNK     1      39.527   8.574  -9.697  1.00  0.00     0.001 A 
ATOM     38  C18 UNK     1      40.609   9.445  -9.828  1.00  0.00     0.014 A 
ENDBRANCH  10  33
TORSDOF 10
ENDMDL
MODEL 4
REMARK VINA RESULT:      -5.7      2.084      8.414
REMARK  10 active torsions:
REMARK  status: ('A' for Active; 'I' for Inactive)
REMARK    1  A    between atoms: O2_2  and  C4_15 
REMARK    2  A    between atoms: O2_2  and  C7_18 
REMARK    3  A    between atoms: O3_3  and  C1_12 
REMARK    4  A    between atoms: O4_4  and  C2_13 
REMARK    5  A    between atoms: O5_5  and  C3_14 
REMARK    6  A    between atoms: O6_6  and  C6_17 
REMARK    7  A    between atoms: O9_9  and  C9_20 
REMARK    8  A    between atoms: O10_10  and  C12_23 
REMARK    9  A    between atoms: C5_16  and  C6_17 
REMARK   10  A    between atoms: C14_25  and  C16_27 
ROOT
ATOM      1  O8  UNK     1      47.616  11.598  -7.445  1.00  0.00    -0.309 OA
ATOM      2  O11 UNK     1      50.125   8.435  -6.895  1.00  0.00    -0.287 OA
ATOM      3  C7  UNK     1      46.091   9.256  -9.784  1.00  0.00     0.110 A 
ATOM      4  C8  UNK     1      46.343  10.408  -9.039  1.00  0.00     0.078 A 
ATOM      5  C9  UNK     1      46.912   8.136  -9.642  1.00  0.00     0.134 A 
ATOM      6  C10 UNK     1      47.418  10.438  -8.149  1.00  0.00     0.096 A 
ATOM      7  C11 UNK     1      48.237   9.318  -8.010  1.00  0.00     0.084 A 
ATOM      8  C12 UNK     1      47.988   8.163  -8.754  1.00  0.00     0.118 A 
ATOM      9  C13 UNK     1      49.364   9.378  -7.067  1.00  0.00     0.190 A 
ATOM     10  C14 UNK     1      48.673  11.654  -6.549  1.00  0.00     0.090 A 
ATOM     11  C15 UNK     1      49.533  10.647  -6.330  1.00  0.00     0.094 A 
ENDROOT
BRANCH   3  12
ATOM     12  O2  UNK     1      45.038   9.237 -10.650  1.00  0.00    -0.315 OA
BRANCH  12  13
ATOM     13  C4  UNK     1      43.770   8.864 -10.107  1.00  0.00     0.299 C 
ATOM     14  O1  UNK     1      43.584   7.457 -10.244  1.00  0.00    -0.340 OA
ATOM     15  C5  UNK     1      42.344   7.020  -9.699  1.00  0.00     0.253 C 
ATOM     16  C3  UNK     1      41.169   7.652 -10.436  1.00  0.00     0.189 C 
ATOM     17  C1  UNK     1      41.289   9.176 -10.443  1.00  0.00     0.183 C 
ATOM     18  C2  UNK     1      42.687   9.622 -10.873  1.00  0.00     0.205 C 
BRANCH  15  19
ATOM     19  C6  UNK     1      42.376   5.542  -9.913  1.00  0.00     0.172 C 
ATOM     20  O7  UNK     1      42.440   4.991 -11.002  1.00  0.00    -0.648 OA
BRANCH  19  21
ATOM     21  O6  UNK     1      42.323   4.885  -8.728  1.00  0.00    -0.774 OA
ATOM     22  H10 UNK     1      42.060   5.478  -7.992  1.00  0.00     0.167 HD
ENDBRANCH  19  21
ENDBRANCH  15  19
BRANCH  16  23
ATOM     23  O5  UNK     1      39.961   7.283  -9.772  1.00  0.00    -0.390 OA
ATOM     24  H8  UNK     1      39.471   6.676 -10.352  1.00  0.00     0.210 HD
ENDBRANCH  16  23
BRANCH  17  25
ATOM     25  O3  UNK     1      40.321   9.692 -11.358  1.00  0.00    -0.390 OA
ATOM     26  H6  UNK     1      39.728  10.278 -10.861  1.00  0.00     0.210 HD
ENDBRANCH  17  25
BRANCH  18  27
ATOM     27  O4  UNK     1      42.842  11.016 -10.606  1.00  0.00    -0.388 OA
ATOM     28  H7  UNK     1      42.169  11.492 -11.120  1.00  0.00     0.210 HD
ENDBRANCH  18  27
ENDBRANCH  12  13
ENDBRANCH   3  12
BRANCH   5  29
ATOM     29  O9  UNK     1      46.659   7.013 -10.375  1.00  0.00    -0.356 OA
ATOM     30  H12 UNK     1      45.703   6.969 -10.550  1.00  0.00     0.218 HD
ENDBRANCH   5  29
BRANCH   8  31
ATOM     31  O10 UNK     1      48.767   7.050  -8.643  1.00  0.00    -0.357 OA
ATOM     32  H13 UNK     1      48.348   6.393  -8.066  1.00  0.00     0.217 HD
ENDBRANCH   8  31
BRANCH  10  33
ATOM     33  C16 UNK     1      48.797  12.948  -5.848  1.00  0.00    -0.002 A 
ATOM     34  C17 UNK     1      49.981  13.685  -5.941  1.00  0.00     0.014 A 
ATOM     35  C19 UNK     1      50.098  14.908  -5.280  1.00  0.00     0.001 A 
ATOM     36  C21 UNK     1      49.032  15.399  -4.526  1.00  0.00     0.000 A 
ATOM     37  C20 UNK     1      47.849  14.666  -4.431  1.00  0.00     0.001 A 
ATOM     38  C18 UNK     1      47.732  13.443  -5.092  1.00  0.00     0.014 A 
ENDBRANCH  10  33
TORSDOF 10
ENDMDL
MODEL 5
REMARK VINA RESULT:      -5.4      2.215      7.661
REMARK  10 active torsions:
REMARK  status: ('A' for Active; 'I' for Inactive)
REMARK    1  A    between atoms: O2_2  and  C4_15 
REMARK    2  A    between atoms: O2_2  and  C7_18 
REMARK    3  A    between atoms: O3_3  and  C1_12 
REMARK    4  A    between atoms: O4_4  and  C2_13 
REMARK    5  A    between atoms: O5_5  and  C3_14 
REMARK    6  A    between atoms: O6_6  and  C6_17 
REMARK    7  A    between atoms: O9_9  and  C9_20 
REMARK    8  A    between atoms: O10_10  and  C12_23 
REMARK    9  A    between atoms: C5_16  and  C6_17 
REMARK   10  A    between atoms: C14_25  and  C16_27 
ROOT
ATOM      1  O8  UNK     1      47.089  10.882  -7.537  1.00  0.00    -0.309 OA
ATOM      2  O11 UNK     1      50.122  10.365 -10.208  1.00  0.00    -0.287 OA
ATOM      3  C7  UNK     1      45.535   8.372  -9.674  1.00  0.00     0.110 A 
ATOM      4  C8  UNK     1      45.739   9.293  -8.646  1.00  0.00     0.078 A 
ATOM      5  C9  UNK     1      46.535   8.147 -10.622  1.00  0.00     0.134 A 
ATOM      6  C10 UNK     1      46.947   9.989  -8.568  1.00  0.00     0.096 A 
ATOM      7  C11 UNK     1      47.943   9.762  -9.516  1.00  0.00     0.084 A 
ATOM      8  C12 UNK     1      47.743   8.841 -10.546  1.00  0.00     0.118 A 
ATOM      9  C13 UNK     1      49.205  10.511  -9.411  1.00  0.00     0.190 A 
ATOM     10  C14 UNK     1      48.281  11.582  -7.430  1.00  0.00     0.090 A 
ATOM     11  C15 UNK     1      49.311  11.456  -8.281  1.00  0.00     0.094 A 
ENDROOT
BRANCH   3  12
ATOM     12  O2  UNK     1      44.352   7.697  -9.741  1.00  0.00    -0.315 OA
BRANCH  12  13
ATOM     13  C4  UNK     1      43.306   8.313 -10.494  1.00  0.00     0.299 C 
ATOM     14  O1  UNK     1      43.606   9.693 -10.693  1.00  0.00    -0.340 OA
ATOM     15  C5  UNK     1      42.607  10.358 -11.459  1.00  0.00     0.253 C 
ATOM     16  C3  UNK     1      41.264  10.342 -10.738  1.00  0.00     0.189 C 
ATOM     17  C1  UNK     1      40.858   8.913 -10.380  1.00  0.00     0.183 C 
ATOM     18  C2  UNK     1      42.005   8.160  -9.706  1.00  0.00     0.205 C 
BRANCH  15  19
ATOM     19  C6  UNK     1      43.135  11.751 -11.576  1.00  0.00     0.172 C 
ATOM     20  O7  UNK     1      42.448  12.760 -11.624  1.00  0.00    -0.648 OA
BRANCH  19  21
ATOM     21  O6  UNK     1      44.489  11.746 -11.625  1.00  0.00    -0.774 OA
ATOM     22  H10 UNK     1      44.882  11.251 -10.875  1.00  0.00     0.167 HD
ENDBRANCH  19  21
ENDBRANCH  15  19
BRANCH  16  23
ATOM     23  O5  UNK     1      40.276  10.905 -11.600  1.00  0.00    -0.390 OA
ATOM     24  H8  UNK     1      40.167  11.842 -11.363  1.00  0.00     0.210 HD
ENDBRANCH  16  23
BRANCH  17  25
ATOM     25  O3  UNK     1      39.743   8.980  -9.489  1.00  0.00    -0.390 OA
ATOM     26  H6  UNK     1      40.089   9.123  -8.593  1.00  0.00     0.210 HD
ENDBRANCH  17  25
BRANCH  18  27
ATOM     27  O4  UNK     1      41.684   6.770  -9.638  1.00  0.00    -0.388 OA
ATOM     28  H7  UNK     1      42.517   6.272  -9.694  1.00  0.00     0.210 HD
ENDBRANCH  18  27
ENDBRANCH  12  13
ENDBRANCH   3  12
BRANCH   5  29
ATOM     29  O9  UNK     1      46.327   7.244 -11.624  1.00  0.00    -0.356 OA
ATOM     30  H12 UNK     1      46.469   7.692 -12.476  1.00  0.00     0.218 HD
ENDBRANCH   5  29
BRANCH   8  31
ATOM     31  O10 UNK     1      48.694   8.594 -11.490  1.00  0.00    -0.357 OA
ATOM     32  H13 UNK     1      49.267   7.860 -11.217  1.00  0.00     0.217 HD
ENDBRANCH   8  31
BRANCH  10  33
ATOM     33  C16 UNK     1      48.326  12.518  -6.288  1.00  0.00    -0.002 A 
ATOM     34  C17 UNK     1      47.867  12.115  -5.031  1.00  0.00     0.014 A 
ATOM     35  C19 UNK     1      47.911  12.999  -3.953  1.00  0.00     0.001 A 
ATOM     36  C21 UNK     1      48.414  14.288  -4.127  1.00  0.00     0.000 A 
ATOM     37  C20 UNK     1      48.874  14.694  -5.380  1.00  0.00     0.001 A 
ATOM     38  C18 UNK     1      48.830  13.810  -6.458  1.00  0.00     0.014 A 
ENDBRANCH  10  33
TORSDOF 10
ENDMDL
MODEL 6
REMARK VINA RESULT:      -5.4      2.336      7.028
REMARK  10 active torsions:
REMARK  status: ('A' for Active; 'I' for Inactive)
REMARK    1  A    between atoms: O2_2  and  C4_15 
REMARK    2  A    between atoms: O2_2  and  C7_18 
REMARK    3  A    between atoms: O3_3  and  C1_12 
REMARK    4  A    between atoms: O4_4  and  C2_13 
REMARK    5  A    between atoms: O5_5  and  C3_14 
REMARK    6  A    between atoms: O6_6  and  C6_17 
REMARK    7  A    between atoms: O9_9  and  C9_20 
REMARK    8  A    between atoms: O10_10  and  C12_23 
REMARK    9  A    between atoms: C5_16  and  C6_17 
REMARK   10  A    between atoms: C14_25  and  C16_27 
ROOT
ATOM      1  O8  UNK     1      47.664  10.196  -7.984  1.00  0.00    -0.309 OA
ATOM      2  O11 UNK     1      50.125   7.171  -6.804  1.00  0.00    -0.287 OA
ATOM      3  C7  UNK     1      46.814   7.747 -10.545  1.00  0.00     0.110 A 
ATOM      4  C8  UNK     1      46.839   8.921  -9.792  1.00  0.00     0.078 A 
ATOM      5  C9  UNK     1      47.632   6.672 -10.194  1.00  0.00     0.134 A 
ATOM      6  C10 UNK     1      47.683   9.017  -8.685  1.00  0.00     0.096 A 
ATOM      7  C11 UNK     1      48.499   7.943  -8.336  1.00  0.00     0.084 A 
ATOM      8  C12 UNK     1      48.477   6.765  -9.088  1.00  0.00     0.118 A 
ATOM      9  C13 UNK     1      49.381   8.072  -7.166  1.00  0.00     0.190 A 
ATOM     10  C14 UNK     1      48.488  10.318  -6.875  1.00  0.00     0.090 A 
ATOM     11  C15 UNK     1      49.320   9.358  -6.443  1.00  0.00     0.094 A 
ENDROOT
BRANCH   3  12
ATOM     12  O2  UNK     1      45.985   7.663 -11.625  1.00  0.00    -0.315 OA
BRANCH  12  13
ATOM     13  C4  UNK     1      44.672   8.200 -11.466  1.00  0.00     0.299 C 
ATOM     14  O1  UNK     1      44.743   9.449 -10.782  1.00  0.00    -0.340 OA
ATOM     15  C5  UNK     1      43.462  10.047 -10.614  1.00  0.00     0.253 C 
ATOM     16  C3  UNK     1      42.559   9.172  -9.752  1.00  0.00     0.189 C 
ATOM     17  C1  UNK     1      42.463   7.760 -10.328  1.00  0.00     0.183 C 
ATOM     18  C2  UNK     1      43.846   7.198 -10.659  1.00  0.00     0.205 C 
BRANCH  15  19
ATOM     19  C6  UNK     1      43.773  11.336  -9.925  1.00  0.00     0.172 C 
ATOM     20  O7  UNK     1      44.023  12.391 -10.489  1.00  0.00    -0.648 OA
BRANCH  19  21
ATOM     21  O6  UNK     1      43.744  11.179  -8.579  1.00  0.00    -0.774 OA
ATOM     22  H10 UNK     1      42.922  11.542  -8.185  1.00  0.00     0.167 HD
ENDBRANCH  19  21
ENDBRANCH  15  19
BRANCH  16  23
ATOM     23  O5  UNK     1      41.256   9.752  -9.721  1.00  0.00    -0.390 OA
ATOM     24  H8  UNK     1      41.336  10.657  -9.373  1.00  0.00     0.210 HD
ENDBRANCH  16  23
BRANCH  17  25
ATOM     25  O3  UNK     1      41.831   6.927  -9.354  1.00  0.00    -0.390 OA
ATOM     26  H6  UNK     1      41.562   6.106  -9.798  1.00  0.00     0.210 HD
ENDBRANCH  17  25
BRANCH  18  27
ATOM     27  O4  UNK     1      43.701   6.009 -11.437  1.00  0.00    -0.388 OA
ATOM     28  H7  UNK     1      43.646   6.273 -12.371  1.00  0.00     0.210 HD
ENDBRANCH  18  27
ENDBRANCH  12  13
ENDBRANCH   3  12
BRANCH   5  29
ATOM     29  O9  UNK     1      47.602   5.527 -10.936  1.00  0.00    -0.356 OA
ATOM     30  H12 UNK     1      47.091   4.857 -10.449  1.00  0.00     0.218 HD
ENDBRANCH   5  29
BRANCH   8  31
ATOM     31  O10 UNK     1      49.261   5.695  -8.776  1.00  0.00    -0.357 OA
ATOM     32  H13 UNK     1      48.867   4.873  -9.105  1.00  0.00     0.217 HD
ENDBRANCH   8  31
BRANCH  10  33
ATOM     33  C16 UNK     1      48.392  11.627  -6.197  1.00  0.00    -0.002 A 
ATOM     34  C17 UNK     1      48.746  12.796  -6.876  1.00  0.00     0.014 A 
ATOM     35  C19 UNK     1      48.655  14.032  -6.236  1.00  0.00     0.001 A 
ATOM     36  C21 UNK     1      48.208  14.104  -4.917  1.00  0.00     0.000 A 
ATOM     37  C20 UNK     1      47.853  12.939  -4.237  1.00  0.00     0.001 A 
ATOM     38  C18 UNK     1      47.945  11.703  -4.876  1.00  0.00     0.014 A 
ENDBRANCH  10  33
TORSDOF 10
ENDMDL
MODEL 7
REMARK VINA RESULT:      -5.2      2.193      7.404
REMARK  10 active torsions:
REMARK  status: ('A' for Active; 'I' for Inactive)
REMARK    1  A    between atoms: O2_2  and  C4_15 
REMARK    2  A    between atoms: O2_2  and  C7_18 
REMARK    3  A    between atoms: O3_3  and  C1_12 
REMARK    4  A    between atoms: O4_4  and  C2_13 
REMARK    5  A    between atoms: O5_5  and  C3_14 
REMARK    6  A    between atoms: O6_6  and  C6_17 
REMARK    7  A    between atoms: O9_9  and  C9_20 
REMARK    8  A    between atoms: O10_10  and  C12_23 
REMARK    9  A    between atoms: C5_16  and  C6_17 
REMARK   10  A    between atoms: C14_25  and  C16_27 
ROOT
ATOM      1  O8  UNK     1      47.809  10.526  -7.859  1.00  0.00    -0.309 OA
ATOM      2  O11 UNK     1      50.125   7.518  -6.380  1.00  0.00    -0.287 OA
ATOM      3  C7  UNK     1      47.237   8.042 -10.464  1.00  0.00     0.110 A 
ATOM      4  C8  UNK     1      47.182   9.226  -9.728  1.00  0.00     0.078 A 
ATOM      5  C9  UNK     1      48.011   6.972 -10.011  1.00  0.00     0.134 A 
ATOM      6  C10 UNK     1      47.902   9.338  -8.538  1.00  0.00     0.096 A 
ATOM      7  C11 UNK     1      48.674   8.269  -8.089  1.00  0.00     0.084 A 
ATOM      8  C12 UNK     1      48.732   7.081  -8.822  1.00  0.00     0.118 A 
ATOM      9  C13 UNK     1      49.425   8.415  -6.832  1.00  0.00     0.190 A 
ATOM     10  C14 UNK     1      48.509  10.664  -6.670  1.00  0.00     0.090 A 
ATOM     11  C15 UNK     1      49.289   9.711  -6.138  1.00  0.00     0.094 A 
ENDROOT
BRANCH   3  12
ATOM     12  O2  UNK     1      46.529   7.943 -11.625  1.00  0.00    -0.315 OA
BRANCH  12  13
ATOM     13  C4  UNK     1      45.130   7.684 -11.501  1.00  0.00     0.299 C 
ATOM     14  O1  UNK     1      44.509   8.740 -10.771  1.00  0.00    -0.340 OA
ATOM     15  C5  UNK     1      43.105   8.549 -10.633  1.00  0.00     0.253 C 
ATOM     16  C3  UNK     1      42.800   7.283  -9.841  1.00  0.00     0.189 C 
ATOM     17  C1  UNK     1      43.486   6.071 -10.470  1.00  0.00     0.183 C 
ATOM     18  C2  UNK     1      44.959   6.355 -10.765  1.00  0.00     0.205 C 
BRANCH  15  19
ATOM     19  C6  UNK     1      42.665   9.766  -9.887  1.00  0.00     0.172 C 
ATOM     20  O7  UNK     1      43.400  10.675  -9.530  1.00  0.00    -0.648 OA
BRANCH  19  21
ATOM     21  O6  UNK     1      41.330   9.727  -9.652  1.00  0.00    -0.774 OA
ATOM     22  H10 UNK     1      40.933   8.876  -9.935  1.00  0.00     0.167 HD
ENDBRANCH  19  21
ENDBRANCH  15  19
BRANCH  16  23
ATOM     23  O5  UNK     1      41.389   7.072  -9.842  1.00  0.00    -0.390 OA
ATOM     24  H8  UNK     1      40.953   7.942  -9.820  1.00  0.00     0.210 HD
ENDBRANCH  16  23
BRANCH  17  25
ATOM     25  O3  UNK     1      43.385   4.980  -9.553  1.00  0.00    -0.390 OA
ATOM     26  H6  UNK     1      44.192   4.973  -9.013  1.00  0.00     0.210 HD
ENDBRANCH  17  25
BRANCH  18  27
ATOM     27  O4  UNK     1      45.487   5.316 -11.590  1.00  0.00    -0.388 OA
ATOM     28  H7  UNK     1      46.166   4.848 -11.076  1.00  0.00     0.210 HD
ENDBRANCH  18  27
ENDBRANCH  12  13
ENDBRANCH   3  12
BRANCH   5  29
ATOM     29  O9  UNK     1      48.060   5.817 -10.737  1.00  0.00    -0.356 OA
ATOM     30  H12 UNK     1      47.387   5.206 -10.389  1.00  0.00     0.218 HD
ENDBRANCH   5  29
BRANCH   8  31
ATOM     31  O10 UNK     1      49.476   6.015  -8.414  1.00  0.00    -0.357 OA
ATOM     32  H13 UNK     1      49.354   5.853  -7.466  1.00  0.00     0.217 HD
ENDBRANCH   8  31
BRANCH  10  33
ATOM     33  C16 UNK     1      48.342  11.982  -6.025  1.00  0.00    -0.002 A 
ATOM     34  C17 UNK     1      47.663  12.087  -4.808  1.00  0.00     0.014 A 
ATOM     35  C19 UNK     1      47.507  13.332  -4.198  1.00  0.00     0.001 A 
ATOM     36  C21 UNK     1      48.029  14.475  -4.802  1.00  0.00     0.000 A 
ATOM     37  C20 UNK     1      48.707  14.375  -6.017  1.00  0.00     0.001 A 
ATOM     38  C18 UNK     1      48.864  13.129  -6.627  1.00  0.00     0.014 A 
ENDBRANCH  10  33
TORSDOF 10
ENDMDL
MODEL 8
REMARK VINA RESULT:      -5.0      2.348      8.422
REMARK  10 active torsions:
REMARK  status: ('A' for Active; 'I' for Inactive)
REMARK    1  A    between atoms: O2_2  and  C4_15 
REMARK    2  A    between atoms: O2_2  and  C7_18 
REMARK    3  A    between atoms: O3_3  and  C1_12 
REMARK    4  A    between atoms: O4_4  and  C2_13 
REMARK    5  A    between atoms: O5_5  and  C3_14 
REMARK    6  A    between atoms: O6_6  and  C6_17 
REMARK    7  A    between atoms: O9_9  and  C9_20 
REMARK    8  A    between atoms: O10_10  and  C12_23 
REMARK    9  A    between atoms: C5_16  and  C6_17 
REMARK   10  A    between atoms: C14_25  and  C16_27 
ROOT
ATOM      1  O8  UNK     1      47.403  11.072  -6.631  1.00  0.00    -0.309 OA
ATOM      2  O11 UNK     1      49.591  13.074  -9.425  1.00  0.00    -0.287 OA
ATOM      3  C7  UNK     1      45.030  10.956  -9.394  1.00  0.00     0.110 A 
ATOM      4  C8  UNK     1      45.609  10.778  -8.138  1.00  0.00     0.078 A 
ATOM      5  C9  UNK     1      45.727  11.632 -10.397  1.00  0.00     0.134 A 
ATOM      6  C10 UNK     1      46.888  11.277  -7.885  1.00  0.00     0.096 A 
ATOM      7  C11 UNK     1      47.581  11.952  -8.888  1.00  0.00     0.084 A 
ATOM      8  C12 UNK     1      47.005  12.133 -10.148  1.00  0.00     0.118 A 
ATOM      9  C13 UNK     1      48.926  12.470  -8.594  1.00  0.00     0.190 A 
ATOM     10  C14 UNK     1      48.675  11.550  -6.354  1.00  0.00     0.090 A 
ATOM     11  C15 UNK     1      49.439  12.219  -7.232  1.00  0.00     0.094 A 
ENDROOT
BRANCH   3  12
ATOM     12  O2  UNK     1      43.780  10.464  -9.631  1.00  0.00    -0.315 OA
BRANCH  12  13
ATOM     13  C4  UNK     1      43.595   9.064  -9.422  1.00  0.00     0.299 C 
ATOM     14  O1  UNK     1      44.524   8.331 -10.217  1.00  0.00    -0.340 OA
ATOM     15  C5  UNK     1      44.402   6.925 -10.034  1.00  0.00     0.253 C 
ATOM     16  C3  UNK     1      43.028   6.433 -10.473  1.00  0.00     0.189 C 
ATOM     17  C1  UNK     1      41.921   7.205  -9.755  1.00  0.00     0.183 C 
ATOM     18  C2  UNK     1      42.161   8.713  -9.821  1.00  0.00     0.205 C 
BRANCH  15  19
ATOM     19  C6  UNK     1      45.475   6.370 -10.913  1.00  0.00     0.172 C 
ATOM     20  O7  UNK     1      45.673   5.181 -11.114  1.00  0.00    -0.648 OA
BRANCH  19  21
ATOM     21  O6  UNK     1      46.210   7.369 -11.460  1.00  0.00    -0.774 OA
ATOM     22  H10 UNK     1      45.851   7.656 -12.326  1.00  0.00     0.167 HD
ENDBRANCH  19  21
ENDBRANCH  15  19
BRANCH  16  23
ATOM     23  O5  UNK     1      42.915   5.047 -10.151  1.00  0.00    -0.390 OA
ATOM     24  H8  UNK     1      43.628   4.822  -9.529  1.00  0.00     0.210 HD
ENDBRANCH  16  23
BRANCH  17  25
ATOM     25  O3  UNK     1      40.680   6.891 -10.390  1.00  0.00    -0.390 OA
ATOM     26  H6  UNK     1      40.519   5.941 -10.270  1.00  0.00     0.210 HD
ENDBRANCH  17  25
BRANCH  18  27
ATOM     27  O4  UNK     1      41.271   9.374  -8.920  1.00  0.00    -0.388 OA
ATOM     28  H7  UNK     1      41.694   9.387  -8.045  1.00  0.00     0.210 HD
ENDBRANCH  18  27
ENDBRANCH  12  13
ENDBRANCH   3  12
BRANCH   5  29
ATOM     29  O9  UNK     1      45.154  11.803 -11.624  1.00  0.00    -0.356 OA
ATOM     30  H12 UNK     1      45.669  11.297 -12.277  1.00  0.00     0.218 HD
ENDBRANCH   5  29
BRANCH   8  31
ATOM     31  O10 UNK     1      47.654  12.787 -11.152  1.00  0.00    -0.357 OA
ATOM     32  H13 UNK     1      47.642  12.265 -11.968  1.00  0.00     0.217 HD
ENDBRANCH   8  31
BRANCH  10  33
ATOM     33  C16 UNK     1      49.131  11.279  -4.975  1.00  0.00    -0.002 A 
ATOM     34  C17 UNK     1      49.693  10.041  -4.653  1.00  0.00     0.014 A 
ATOM     35  C19 UNK     1      50.125   9.785  -3.351  1.00  0.00     0.001 A 
ATOM     36  C21 UNK     1      49.996  10.766  -2.368  1.00  0.00     0.000 A 
ATOM     37  C20 UNK     1      49.435  12.003  -2.686  1.00  0.00     0.001 A 
ATOM     38  C18 UNK     1      49.003  12.259  -3.988  1.00  0.00     0.014 A 
ENDBRANCH  10  33
TORSDOF 10
ENDMDL
MODEL 9
REMARK VINA RESULT:      -5.0      2.387      7.257
REMARK  10 active torsions:
REMARK  status: ('A' for Active; 'I' for Inactive)
REMARK    1  A    between atoms: O2_2  and  C4_15 
REMARK    2  A    between atoms: O2_2  and  C7_18 
REMARK    3  A    between atoms: O3_3  and  C1_12 
REMARK    4  A    between atoms: O4_4  and  C2_13 
REMARK    5  A    between atoms: O5_5  and  C3_14 
REMARK    6  A    between atoms: O6_6  and  C6_17 
REMARK    7  A    between atoms: O9_9  and  C9_20 
REMARK    8  A    between atoms: O10_10  and  C12_23 
REMARK    9  A    between atoms: C5_16  and  C6_17 
REMARK   10  A    between atoms: C14_25  and  C16_27 
ROOT
ATOM      1  O8  UNK     1      46.849  10.215  -7.952  1.00  0.00    -0.309 OA
ATOM      2  O11 UNK     1      50.125   8.047  -9.033  1.00  0.00    -0.287 OA
ATOM      3  C7  UNK     1      45.214   7.746 -10.076  1.00  0.00     0.110 A 
ATOM      4  C8  UNK     1      45.420   8.834  -9.226  1.00  0.00     0.078 A 
ATOM      5  C9  UNK     1      46.294   6.961 -10.483  1.00  0.00     0.134 A 
ATOM      6  C10 UNK     1      46.709   9.135  -8.784  1.00  0.00     0.096 A 
ATOM      7  C11 UNK     1      47.786   8.349  -9.193  1.00  0.00     0.084 A 
ATOM      8  C12 UNK     1      47.584   7.260 -10.043  1.00  0.00     0.118 A 
ATOM      9  C13 UNK     1      49.134   8.690  -8.713  1.00  0.00     0.190 A 
ATOM     10  C14 UNK     1      48.118  10.534  -7.491  1.00  0.00     0.090 A 
ATOM     11  C15 UNK     1      49.231   9.860  -7.816  1.00  0.00     0.094 A 
ENDROOT
BRANCH   3  12
ATOM     12  O2  UNK     1      43.951   7.460 -10.501  1.00  0.00    -0.315 OA
BRANCH  12  13
ATOM     13  C4  UNK     1      43.220   8.531 -11.101  1.00  0.00     0.299 C 
ATOM     14  O1  UNK     1      43.978   9.736 -11.017  1.00  0.00    -0.340 OA
ATOM     15  C5  UNK     1      43.309  10.839 -11.620  1.00  0.00     0.253 C 
ATOM     16  C3  UNK     1      41.998  11.142 -10.903  1.00  0.00     0.189 C 
ATOM     17  C1  UNK     1      41.114   9.896 -10.841  1.00  0.00     0.183 C 
ATOM     18  C2  UNK     1      41.898   8.680 -10.347  1.00  0.00     0.205 C 
BRANCH  15  19
ATOM     19  C6  UNK     1      44.280  11.961 -11.455  1.00  0.00     0.172 C 
ATOM     20  O7  UNK     1      43.996  13.149 -11.506  1.00  0.00    -0.648 OA
BRANCH  19  21
ATOM     21  O6  UNK     1      45.531  11.484 -11.244  1.00  0.00    -0.774 OA
ATOM     22  H10 UNK     1      46.125  11.661 -12.004  1.00  0.00     0.167 HD
ENDBRANCH  19  21
ENDBRANCH  15  19
BRANCH  16  23
ATOM     23  O5  UNK     1      41.311  12.165 -11.621  1.00  0.00    -0.390 OA
ATOM     24  H8  UNK     1      41.112  12.887 -11.001  1.00  0.00     0.210 HD
ENDBRANCH  16  23
BRANCH  17  25
ATOM     25  O3  UNK     1      40.036  10.164  -9.943  1.00  0.00    -0.390 OA
ATOM     26  H6  UNK     1      39.226   9.796 -10.334  1.00  0.00     0.210 HD
ENDBRANCH  17  25
BRANCH  18  27
ATOM     27  O4  UNK     1      41.125   7.499 -10.562  1.00  0.00    -0.388 OA
ATOM     28  H7  UNK     1      41.318   6.884  -9.834  1.00  0.00     0.210 HD
ENDBRANCH  18  27
ENDBRANCH  12  13
ENDBRANCH   3  12
BRANCH   5  29
ATOM     29  O9  UNK     1      46.084   5.899 -11.314  1.00  0.00    -0.356 OA
ATOM     30  H12 UNK     1      46.481   6.103 -12.179  1.00  0.00     0.218 HD
ENDBRANCH   5  29
BRANCH   8  31
ATOM     31  O10 UNK     1      48.613   6.470 -10.462  1.00  0.00    -0.357 OA
ATOM     32  H13 UNK     1      49.333   7.008 -10.824  1.00  0.00     0.217 HD
ENDBRANCH   8  31
BRANCH  10  33
ATOM     33  C16 UNK     1      48.155  11.716  -6.606  1.00  0.00    -0.002 A 
ATOM     34  C17 UNK     1      48.767  12.896  -7.038  1.00  0.00     0.014 A 
ATOM     35  C19 UNK     1      48.801  14.013  -6.202  1.00  0.00     0.001 A 
ATOM     36  C21 UNK     1      48.224  13.954  -4.934  1.00  0.00     0.000 A 
ATOM     37  C20 UNK     1      47.613  12.778  -4.500  1.00  0.00     0.001 A 
ATOM     38  C18 UNK     1      47.578  11.661  -5.335  1.00  0.00     0.014 A 
ENDBRANCH  10  33
TORSDOF 10
ENDMDL
MODEL 10
REMARK VINA RESULT:      -5.0      2.154      8.035
REMARK  10 active torsions:
REMARK  status: ('A' for Active; 'I' for Inactive)
REMARK    1  A    between atoms: O2_2  and  C4_15 
REMARK    2  A    between atoms: O2_2  and  C7_18 
REMARK    3  A    between atoms: O3_3  and  C1_12 
REMARK    4  A    between atoms: O4_4  and  C2_13 
REMARK    5  A    between atoms: O5_5  and  C3_14 
REMARK    6  A    between atoms: O6_6  and  C6_17 
REMARK    7  A    between atoms: O9_9  and  C9_20 
REMARK    8  A    between atoms: O10_10  and  C12_23 
REMARK    9  A    between atoms: C5_16  and  C6_17 
REMARK   10  A    between atoms: C14_25  and  C16_27 
ROOT
ATOM      1  O8  UNK     1      47.871  10.003  -7.214  1.00  0.00    -0.309 OA
ATOM      2  O11 UNK     1      50.125   6.644  -7.696  1.00  0.00    -0.287 OA
ATOM      3  C7  UNK     1      46.237   8.649 -10.176  1.00  0.00     0.110 A 
ATOM      4  C8  UNK     1      46.554   9.483  -9.103  1.00  0.00     0.078 A 
ATOM      5  C9  UNK     1      46.969   7.482 -10.397  1.00  0.00     0.134 A 
ATOM      6  C10 UNK     1      47.606   9.145  -8.250  1.00  0.00     0.096 A 
ATOM      7  C11 UNK     1      48.336   7.979  -8.473  1.00  0.00     0.084 A 
ATOM      8  C12 UNK     1      48.021   7.142  -9.546  1.00  0.00     0.118 A 
ATOM      9  C13 UNK     1      49.441   7.649  -7.560  1.00  0.00     0.190 A 
ATOM     10  C14 UNK     1      48.906   9.690  -6.346  1.00  0.00     0.090 A 
ATOM     11  C15 UNK     1      49.683   8.602  -6.458  1.00  0.00     0.094 A 
ENDROOT
BRANCH   3  12
ATOM     12  O2  UNK     1      45.206   8.988 -11.003  1.00  0.00    -0.315 OA
BRANCH  12  13
ATOM     13  C4  UNK     1      43.989   9.394 -10.376  1.00  0.00     0.299 C 
ATOM     14  O1  UNK     1      43.089   8.291 -10.313  1.00  0.00    -0.340 OA
ATOM     15  C5  UNK     1      41.862   8.629  -9.676  1.00  0.00     0.253 C 
ATOM     16  C3  UNK     1      41.119   9.706 -10.456  1.00  0.00     0.189 C 
ATOM     17  C1  UNK     1      42.009  10.929 -10.677  1.00  0.00     0.183 C 
ATOM     18  C2  UNK     1      43.386  10.527 -11.206  1.00  0.00     0.205 C 
BRANCH  15  19
ATOM     19  C6  UNK     1      41.104   7.342  -9.685  1.00  0.00     0.172 C 
ATOM     20  O7  UNK     1      39.905   7.232  -9.475  1.00  0.00    -0.648 OA
BRANCH  19  21
ATOM     21  O6  UNK     1      41.930   6.302  -9.956  1.00  0.00    -0.774 OA
ATOM     22  H10 UNK     1      42.425   6.435 -10.792  1.00  0.00     0.167 HD
ENDBRANCH  19  21
ENDBRANCH  15  19
BRANCH  16  23
ATOM     23  O5  UNK     1      39.966  10.097  -9.711  1.00  0.00    -0.390 OA
ATOM     24  H8  UNK     1      40.232  10.211  -8.783  1.00  0.00     0.210 HD
ENDBRANCH  16  23
BRANCH  17  25
ATOM     25  O3  UNK     1      41.364  11.781 -11.624  1.00  0.00    -0.390 OA
ATOM     26  H6  UNK     1      41.672  12.688 -11.463  1.00  0.00     0.210 HD
ENDBRANCH  17  25
BRANCH  18  27
ATOM     27  O4  UNK     1      44.266  11.650 -11.138  1.00  0.00    -0.388 OA
ATOM     28  H7  UNK     1      43.917  12.334 -11.732  1.00  0.00     0.210 HD
ENDBRANCH  18  27
ENDBRANCH  12  13
ENDBRANCH   3  12
BRANCH   5  29
ATOM     29  O9  UNK     1      46.652   6.672 -11.449  1.00  0.00    -0.356 OA
ATOM     30  H12 UNK     1      45.754   6.323 -11.309  1.00  0.00     0.218 HD
ENDBRANCH   5  29
BRANCH   8  31
ATOM     31  O10 UNK     1      48.713   5.994  -9.794  1.00  0.00    -0.357 OA
ATOM     32  H13 UNK     1      49.661   6.124  -9.642  1.00  0.00     0.217 HD
ENDBRANCH   8  31
BRANCH  10  33
ATOM     33  C16 UNK     1      49.108  10.682  -5.270  1.00  0.00    -0.002 A 
ATOM     34  C17 UNK     1      49.626  10.283  -4.035  1.00  0.00     0.014 A 
ATOM     35  C19 UNK     1      49.817  11.220  -3.020  1.00  0.00     0.001 A 
ATOM     36  C21 UNK     1      49.493  12.559  -3.236  1.00  0.00     0.000 A 
ATOM     37  C20 UNK     1      48.976  12.962  -4.467  1.00  0.00     0.001 A 
ATOM     38  C18 UNK     1      48.784  12.024  -5.483  1.00  0.00     0.014 A 
ENDBRANCH  10  33
TORSDOF 10
ENDMDL
MODEL 11
REMARK VINA RESULT:      -4.9      1.329      2.814
REMARK  10 active torsions:
REMARK  status: ('A' for Active; 'I' for Inactive)
REMARK    1  A    between atoms: O2_2  and  C4_15 
REMARK    2  A    between atoms: O2_2  and  C7_18 
REMARK    3  A    between atoms: O3_3  and  C1_12 
REMARK    4  A    between atoms: O4_4  and  C2_13 
REMARK    5  A    between atoms: O5_5  and  C3_14 
REMARK    6  A    between atoms: O6_6  and  C6_17 
REMARK    7  A    between atoms: O9_9  and  C9_20 
REMARK    8  A    between atoms: O10_10  and  C12_23 
REMARK    9  A    between atoms: C5_16  and  C6_17 
REMARK   10  A    between atoms: C14_25  and  C16_27 
ROOT
ATOM      1  O8  UNK     1      44.711   8.799 -10.242  1.00  0.00    -0.309 OA
ATOM      2  O11 UNK     1      46.001   5.035 -11.121  1.00  0.00    -0.287 OA
ATOM      3  C7  UNK     1      48.277   9.484 -10.551  1.00  0.00     0.110 A 
ATOM      4  C8  UNK     1      46.908   9.658 -10.348  1.00  0.00     0.078 A 
ATOM      5  C9  UNK     1      48.784   8.220 -10.857  1.00  0.00     0.134 A 
ATOM      6  C10 UNK     1      46.046   8.565 -10.453  1.00  0.00     0.096 A 
ATOM      7  C11 UNK     1      46.555   7.305 -10.757  1.00  0.00     0.084 A 
ATOM      8  C12 UNK     1      47.925   7.126 -10.961  1.00  0.00     0.118 A 
ATOM      9  C13 UNK     1      45.624   6.170 -10.859  1.00  0.00     0.190 A 
ATOM     10  C14 UNK     1      43.830   7.733 -10.346  1.00  0.00     0.090 A 
ATOM     11  C15 UNK     1      44.198   6.473 -10.628  1.00  0.00     0.094 A 
ENDROOT
BRANCH   3  12
ATOM     12  O2  UNK     1      49.110  10.558 -10.447  1.00  0.00    -0.315 OA
BRANCH  12  13
ATOM     13  C4  UNK     1      49.667  10.814  -9.157  1.00  0.00     0.299 C 
ATOM     14  O1  UNK     1      49.127   9.896  -8.210  1.00  0.00    -0.340 OA
ATOM     15  C5  UNK     1      49.662  10.087  -6.905  1.00  0.00     0.253 C 
ATOM     16  C3  UNK     1      49.310  11.468  -6.366  1.00  0.00     0.189 C 
ATOM     17  C1  UNK     1      49.758  12.560  -7.338  1.00  0.00     0.183 C 
ATOM     18  C2  UNK     1      49.314  12.250  -8.768  1.00  0.00     0.205 C 
BRANCH  15  19
ATOM     19  C6  UNK     1      49.000   9.015  -6.102  1.00  0.00     0.172 C 
ATOM     20  O7  UNK     1      48.816   7.868  -6.480  1.00  0.00    -0.648 OA
BRANCH  19  21
ATOM     21  O6  UNK     1      48.626   9.488  -4.888  1.00  0.00    -0.774 OA
ATOM     22  H10 UNK     1      47.665   9.683  -4.851  1.00  0.00     0.167 HD
ENDBRANCH  19  21
ENDBRANCH  15  19
BRANCH  16  23
ATOM     23  O5  UNK     1      49.975  11.655  -5.117  1.00  0.00    -0.390 OA
ATOM     24  H8  UNK     1      50.462  12.495  -5.158  1.00  0.00     0.210 HD
ENDBRANCH  16  23
BRANCH  17  25
ATOM     25  O3  UNK     1      49.176  13.794  -6.916  1.00  0.00    -0.390 OA
ATOM     26  H6  UNK     1      49.744  14.514  -7.238  1.00  0.00     0.210 HD
ENDBRANCH  17  25
BRANCH  18  27
ATOM     27  O4  UNK     1      49.977  13.134  -9.672  1.00  0.00    -0.388 OA
ATOM     28  H7  UNK     1      50.827  12.729  -9.911  1.00  0.00     0.210 HD
ENDBRANCH  18  27
ENDBRANCH  12  13
ENDBRANCH   3  12
BRANCH   5  29
ATOM     29  O9  UNK     1      50.125   8.057 -11.053  1.00  0.00    -0.356 OA
ATOM     30  H12 UNK     1      50.404   7.238 -10.609  1.00  0.00     0.218 HD
ENDBRANCH   5  29
BRANCH   8  31
ATOM     31  O10 UNK     1      48.458   5.907 -11.261  1.00  0.00    -0.357 OA
ATOM     32  H13 UNK     1      49.363   5.835 -10.921  1.00  0.00     0.217 HD
ENDBRANCH   8  31
BRANCH  10  33
ATOM     33  C16 UNK     1      42.419   8.094 -10.096  1.00  0.00    -0.002 A 
ATOM     34  C17 UNK     1      41.970   9.390 -10.360  1.00  0.00     0.014 A 
ATOM     35  C19 UNK     1      40.637   9.730 -10.125  1.00  0.00     0.001 A 
ATOM     36  C21 UNK     1      39.751   8.776  -9.627  1.00  0.00     0.000 A 
ATOM     37  C20 UNK     1      40.196   7.481  -9.362  1.00  0.00     0.001 A 
ATOM     38  C18 UNK     1      41.529   7.141  -9.597  1.00  0.00     0.014 A 
ENDBRANCH  10  33
TORSDOF 10
ENDMDL
MODEL 12
REMARK VINA RESULT:      -4.8      2.399      4.320
REMARK  10 active torsions:
REMARK  status: ('A' for Active; 'I' for Inactive)
REMARK    1  A    between atoms: O2_2  and  C4_15 
REMARK    2  A    between atoms: O2_2  and  C7_18 
REMARK    3  A    between atoms: O3_3  and  C1_12 
REMARK    4  A    between atoms: O4_4  and  C2_13 
REMARK    5  A    between atoms: O5_5  and  C3_14 
REMARK    6  A    between atoms: O6_6  and  C6_17 
REMARK    7  A    between atoms: O9_9  and  C9_20 
REMARK    8  A    between atoms: O10_10  and  C12_23 
REMARK    9  A    between atoms: C5_16  and  C6_17 
REMARK   10  A    between atoms: C14_25  and  C16_27 
ROOT
ATOM      1  O8  UNK     1      44.869   9.594 -10.117  1.00  0.00    -0.309 OA
ATOM      2  O11 UNK     1      43.718  13.218 -11.582  1.00  0.00    -0.287 OA
ATOM      3  C7  UNK     1      48.148  11.162 -10.382  1.00  0.00     0.110 A 
ATOM      4  C8  UNK     1      47.144  10.226 -10.131  1.00  0.00     0.078 A 
ATOM      5  C9  UNK     1      47.821  12.423 -10.883  1.00  0.00     0.134 A 
ATOM      6  C10 UNK     1      45.811  10.555 -10.382  1.00  0.00     0.096 A 
ATOM      7  C11 UNK     1      45.487  11.814 -10.883  1.00  0.00     0.084 A 
ATOM      8  C12 UNK     1      46.490  12.754 -11.136  1.00  0.00     0.118 A 
ATOM      9  C13 UNK     1      44.075  12.133 -11.141  1.00  0.00     0.190 A 
ATOM     10  C14 UNK     1      43.535   9.895 -10.350  1.00  0.00     0.090 A 
ATOM     11  C15 UNK     1      43.099  11.068 -10.835  1.00  0.00     0.094 A 
ENDROOT
BRANCH   3  12
ATOM     12  O2  UNK     1      49.447  10.831 -10.133  1.00  0.00    -0.315 OA
BRANCH  12  13
ATOM     13  C4  UNK     1      49.776  10.502  -8.783  1.00  0.00     0.299 C 
ATOM     14  O1  UNK     1      49.217   9.235  -8.446  1.00  0.00    -0.340 OA
ATOM     15  C5  UNK     1      49.531   8.841  -7.115  1.00  0.00     0.253 C 
ATOM     16  C3  UNK     1      48.942   9.817  -6.103  1.00  0.00     0.189 C 
ATOM     17  C1  UNK     1      49.393  11.246  -6.402  1.00  0.00     0.183 C 
ATOM     18  C2  UNK     1      49.202  11.594  -7.879  1.00  0.00     0.205 C 
BRANCH  15  19
ATOM     19  C6  UNK     1      48.892   7.496  -6.995  1.00  0.00     0.172 C 
ATOM     20  O7  UNK     1      49.357   6.456  -7.438  1.00  0.00    -0.648 OA
BRANCH  19  21
ATOM     21  O6  UNK     1      47.716   7.582  -6.327  1.00  0.00    -0.774 OA
ATOM     22  H10 UNK     1      47.528   8.499  -6.032  1.00  0.00     0.167 HD
ENDBRANCH  19  21
ENDBRANCH  15  19
BRANCH  16  23
ATOM     23  O5  UNK     1      49.391   9.450  -4.799  1.00  0.00    -0.390 OA
ATOM     24  H8  UNK     1      50.329   9.694  -4.723  1.00  0.00     0.210 HD
ENDBRANCH  16  23
BRANCH  17  25
ATOM     25  O3  UNK     1      48.614  12.134  -5.599  1.00  0.00    -0.390 OA
ATOM     26  H6  UNK     1      47.933  12.527  -6.169  1.00  0.00     0.210 HD
ENDBRANCH  17  25
BRANCH  18  27
ATOM     27  O4  UNK     1      49.879  12.817  -8.169  1.00  0.00    -0.388 OA
ATOM     28  H7  UNK     1      49.575  13.122  -9.040  1.00  0.00     0.210 HD
ENDBRANCH  18  27
ENDBRANCH  12  13
ENDBRANCH   3  12
BRANCH   5  29
ATOM     29  O9  UNK     1      48.809  13.332 -11.126  1.00  0.00    -0.356 OA
ATOM     30  H12 UNK     1      48.724  14.059 -10.485  1.00  0.00     0.218 HD
ENDBRANCH   5  29
BRANCH   8  31
ATOM     31  O10 UNK     1      46.210  13.995 -11.625  1.00  0.00    -0.357 OA
ATOM     32  H13 UNK     1      47.016  14.429 -11.943  1.00  0.00     0.217 HD
ENDBRANCH   8  31
BRANCH  10  33
ATOM     33  C16 UNK     1      42.607   8.790 -10.035  1.00  0.00    -0.002 A 
ATOM     34  C17 UNK     1      41.276   9.064  -9.708  1.00  0.00     0.014 A 
ATOM     35  C19 UNK     1      40.400   8.020  -9.411  1.00  0.00     0.001 A 
ATOM     36  C21 UNK     1      40.849   6.700  -9.442  1.00  0.00     0.000 A 
ATOM     37  C20 UNK     1      42.177   6.423  -9.768  1.00  0.00     0.001 A 
ATOM     38  C18 UNK     1      43.054   7.467 -10.064  1.00  0.00     0.014 A 
ENDBRANCH  10  33
TORSDOF 10
ENDMDL
MODEL 13
REMARK VINA RESULT:      -4.5      2.558      3.960
REMARK  10 active torsions:
REMARK  status: ('A' for Active; 'I' for Inactive)
REMARK    1  A    between atoms: O2_2  and  C4_15 
REMARK    2  A    between atoms: O2_2  and  C7_18 
REMARK    3  A    between atoms: O3_3  and  C1_12 
REMARK    4  A    between atoms: O4_4  and  C2_13 
REMARK    5  A    between atoms: O5_5  and  C3_14 
REMARK    6  A    between atoms: O6_6  and  C6_17 
REMARK    7  A    between atoms: O9_9  and  C9_20 
REMARK    8  A    between atoms: O10_10  and  C12_23 
REMARK    9  A    between atoms: C5_16  and  C6_17 
REMARK   10  A    between atoms: C14_25  and  C16_27 
ROOT
ATOM      1  O8  UNK     1      45.662  12.319 -10.095  1.00  0.00    -0.309 OA
ATOM      2  O11 UNK     1      44.747   8.350 -10.191  1.00  0.00    -0.287 OA
ATOM      3  C7  UNK     1      48.837  10.980  -8.907  1.00  0.00     0.110 A 
ATOM      4  C8  UNK     1      47.843  11.874  -9.306  1.00  0.00     0.078 A 
ATOM      5  C9  UNK     1      48.588   9.607  -8.918  1.00  0.00     0.134 A 
ATOM      6  C10 UNK     1      46.599  11.392  -9.716  1.00  0.00     0.096 A 
ATOM      7  C11 UNK     1      46.354  10.020  -9.725  1.00  0.00     0.084 A 
ATOM      8  C12 UNK     1      47.346   9.121  -9.327  1.00  0.00     0.118 A 
ATOM      9  C13 UNK     1      45.033   9.539 -10.160  1.00  0.00     0.190 A 
ATOM     10  C14 UNK     1      44.420  11.868 -10.514  1.00  0.00     0.090 A 
ATOM     11  C15 UNK     1      44.061  10.576 -10.562  1.00  0.00     0.094 A 
ENDROOT
BRANCH   3  12
ATOM     12  O2  UNK     1      50.049  11.461  -8.509  1.00  0.00    -0.315 OA
BRANCH  12  13
ATOM     13  C4  UNK     1      50.125  11.984  -7.182  1.00  0.00     0.299 C 
ATOM     14  O1  UNK     1      49.659  11.008  -6.254  1.00  0.00    -0.340 OA
ATOM     15  C5  UNK     1      49.731  11.464  -4.907  1.00  0.00     0.253 C 
ATOM     16  C3  UNK     1      48.837  12.679  -4.691  1.00  0.00     0.189 C 
ATOM     17  C1  UNK     1      49.172  13.784  -5.692  1.00  0.00     0.183 C 
ATOM     18  C2  UNK     1      49.254  13.239  -7.119  1.00  0.00     0.205 C 
BRANCH  15  19
ATOM     19  C6  UNK     1      49.241  10.292  -4.121  1.00  0.00     0.172 C 
ATOM     20  O7  UNK     1      49.382  10.147  -2.916  1.00  0.00    -0.648 OA
BRANCH  19  21
ATOM     21  O6  UNK     1      48.617   9.401  -4.929  1.00  0.00    -0.774 OA
ATOM     22  H10 UNK     1      48.368   9.798  -5.791  1.00  0.00     0.167 HD
ENDBRANCH  19  21
ENDBRANCH  15  19
BRANCH  16  23
ATOM     23  O5  UNK     1      49.044  13.170  -3.368  1.00  0.00    -0.390 OA
ATOM     24  H8  UNK     1      49.898  12.830  -3.050  1.00  0.00     0.210 HD
ENDBRANCH  16  23
BRANCH  17  25
ATOM     25  O3  UNK     1      48.146  14.774  -5.619  1.00  0.00    -0.390 OA
ATOM     26  H6  UNK     1      48.275  15.274  -4.796  1.00  0.00     0.210 HD
ENDBRANCH  17  25
BRANCH  18  27
ATOM     27  O4  UNK     1      49.831  14.228  -7.972  1.00  0.00    -0.388 OA
ATOM     28  H7  UNK     1      49.382  15.070  -7.792  1.00  0.00     0.210 HD
ENDBRANCH  18  27
ENDBRANCH  12  13
ENDBRANCH   3  12
BRANCH   5  29
ATOM     29  O9  UNK     1      49.566   8.738  -8.527  1.00  0.00    -0.356 OA
ATOM     30  H12 UNK     1      49.233   7.830  -8.637  1.00  0.00     0.218 HD
ENDBRANCH   5  29
BRANCH   8  31
ATOM     31  O10 UNK     1      47.141   7.774  -9.324  1.00  0.00    -0.357 OA
ATOM     32  H13 UNK     1      46.335   7.547  -9.812  1.00  0.00     0.217 HD
ENDBRANCH   8  31
BRANCH  10  33
ATOM     33  C16 UNK     1      43.487  12.948 -10.895  1.00  0.00    -0.002 A 
ATOM     34  C17 UNK     1      42.174  12.643 -11.266  1.00  0.00     0.014 A 
ATOM     35  C19 UNK     1      41.293  13.664 -11.625  1.00  0.00     0.001 A 
ATOM     36  C21 UNK     1      41.721  14.992 -11.613  1.00  0.00     0.000 A 
ATOM     37  C20 UNK     1      43.030  15.299 -11.243  1.00  0.00     0.001 A 
ATOM     38  C18 UNK     1      43.911  14.279 -10.885  1.00  0.00     0.014 A 
ENDBRANCH  10  33
TORSDOF 10
ENDMDL
MODEL 14
REMARK VINA RESULT:      -4.1      2.875      6.931
REMARK  10 active torsions:
REMARK  status: ('A' for Active; 'I' for Inactive)
REMARK    1  A    between atoms: O2_2  and  C4_15 
REMARK    2  A    between atoms: O2_2  and  C7_18 
REMARK    3  A    between atoms: O3_3  and  C1_12 
REMARK    4  A    between atoms: O4_4  and  C2_13 
REMARK    5  A    between atoms: O5_5  and  C3_14 
REMARK    6  A    between atoms: O6_6  and  C6_17 
REMARK    7  A    between atoms: O9_9  and  C9_20 
REMARK    8  A    between atoms: O10_10  and  C12_23 
REMARK    9  A    between atoms: C5_16  and  C6_17 
REMARK   10  A    between atoms: C14_25  and  C16_27 
ROOT
ATOM      1  O8  UNK     1      47.762   9.875  -6.868  1.00  0.00    -0.309 OA
ATOM      2  O11 UNK     1      50.074   6.676  -7.878  1.00  0.00    -0.287 OA
ATOM      3  C7  UNK     1      46.013   8.851  -9.896  1.00  0.00     0.110 A 
ATOM      4  C8  UNK     1      46.364   9.553  -8.743  1.00  0.00     0.078 A 
ATOM      5  C9  UNK     1      46.763   7.744 -10.297  1.00  0.00     0.134 A 
ATOM      6  C10 UNK     1      47.466   9.145  -7.991  1.00  0.00     0.096 A 
ATOM      7  C11 UNK     1      48.213   8.040  -8.394  1.00  0.00     0.084 A 
ATOM      8  C12 UNK     1      47.866   7.334  -9.547  1.00  0.00     0.118 A 
ATOM      9  C13 UNK     1      49.372   7.634  -7.583  1.00  0.00     0.190 A 
ATOM     10  C14 UNK     1      48.848   9.490  -6.097  1.00  0.00     0.090 A 
ATOM     11  C15 UNK     1      49.646   8.449  -6.382  1.00  0.00     0.094 A 
ENDROOT
BRANCH   3  12
ATOM     12  O2  UNK     1      44.934   9.256 -10.624  1.00  0.00    -0.315 OA
BRANCH  12  13
ATOM     13  C4  UNK     1      45.006  10.560 -11.203  1.00  0.00     0.299 C 
ATOM     14  O1  UNK     1      46.308  11.104 -11.001  1.00  0.00    -0.340 OA
ATOM     15  C5  UNK     1      46.449  12.398 -11.578  1.00  0.00     0.253 C 
ATOM     16  C3  UNK     1      45.496  13.394 -10.928  1.00  0.00     0.189 C 
ATOM     17  C1  UNK     1      44.055  12.888 -10.994  1.00  0.00     0.183 C 
ATOM     18  C2  UNK     1      43.952  11.436 -10.526  1.00  0.00     0.205 C 
BRANCH  15  19
ATOM     19  C6  UNK     1      47.872  12.750 -11.286  1.00  0.00     0.172 C 
ATOM     20  O7  UNK     1      48.422  13.788 -11.625  1.00  0.00    -0.648 OA
BRANCH  19  21
ATOM     21  O6  UNK     1      48.479  11.756 -10.593  1.00  0.00    -0.774 OA
ATOM     22  H10 UNK     1      48.680  12.022  -9.670  1.00  0.00     0.167 HD
ENDBRANCH  19  21
ENDBRANCH  15  19
BRANCH  16  23
ATOM     23  O5  UNK     1      45.587  14.635 -11.625  1.00  0.00    -0.390 OA
ATOM     24  H8  UNK     1      46.508  14.944 -11.573  1.00  0.00     0.210 HD
ENDBRANCH  16  23
BRANCH  17  25
ATOM     25  O3  UNK     1      43.256  13.719 -10.151  1.00  0.00    -0.390 OA
ATOM     26  H6  UNK     1      42.397  13.280 -10.033  1.00  0.00     0.210 HD
ENDBRANCH  17  25
BRANCH  18  27
ATOM     27  O4  UNK     1      42.662  10.922 -10.858  1.00  0.00    -0.388 OA
ATOM     28  H7  UNK     1      42.611  10.857 -11.826  1.00  0.00     0.210 HD
ENDBRANCH  18  27
ENDBRANCH  12  13
ENDBRANCH   3  12
BRANCH   5  29
ATOM     29  O9  UNK     1      46.413   7.062 -11.427  1.00  0.00    -0.356 OA
ATOM     30  H12 UNK     1      47.199   6.593 -11.759  1.00  0.00     0.218 HD
ENDBRANCH   5  29
BRANCH   8  31
ATOM     31  O10 UNK     1      48.573   6.249  -9.971  1.00  0.00    -0.357 OA
ATOM     32  H13 UNK     1      49.208   5.967  -9.295  1.00  0.00     0.217 HD
ENDBRANCH   8  31
BRANCH  10  33
ATOM     33  C16 UNK     1      49.079  10.346  -4.915  1.00  0.00    -0.002 A 
ATOM     34  C17 UNK     1      48.495  11.613  -4.842  1.00  0.00     0.014 A 
ATOM     35  C19 UNK     1      48.712  12.420  -3.725  1.00  0.00     0.001 A 
ATOM     36  C21 UNK     1      49.514  11.964  -2.679  1.00  0.00     0.000 A 
ATOM     37  C20 UNK     1      50.100  10.700  -2.750  1.00  0.00     0.001 A 
ATOM     38  C18 UNK     1      49.882   9.892  -3.866  1.00  0.00     0.014 A 
ENDBRANCH  10  33
TORSDOF 10
ENDMDL
MODEL 15
REMARK VINA RESULT:      -3.7      2.785      4.339
REMARK  10 active torsions:
REMARK  status: ('A' for Active; 'I' for Inactive)
REMARK    1  A    between atoms: O2_2  and  C4_15 
REMARK    2  A    between atoms: O2_2  and  C7_18 
REMARK    3  A    between atoms: O3_3  and  C1_12 
REMARK    4  A    between atoms: O4_4  and  C2_13 
REMARK    5  A    between atoms: O5_5  and  C3_14 
REMARK    6  A    between atoms: O6_6  and  C6_17 
REMARK    7  A    between atoms: O9_9  and  C9_20 
REMARK    8  A    between atoms: O10_10  and  C12_23 
REMARK    9  A    between atoms: C5_16  and  C6_17 
REMARK   10  A    between atoms: C14_25  and  C16_27 
ROOT
ATOM      1  O8  UNK     1      45.055  11.291 -10.661  1.00  0.00    -0.309 OA
ATOM      2  O11 UNK     1      42.488   8.169 -11.170  1.00  0.00    -0.287 OA
ATOM      3  C7  UNK     1      47.318   8.559  -9.825  1.00  0.00     0.110 A 
ATOM      4  C8  UNK     1      46.819   9.841 -10.058  1.00  0.00     0.078 A 
ATOM      5  C9  UNK     1      46.491   7.446  -9.983  1.00  0.00     0.134 A 
ATOM      6  C10 UNK     1      45.489  10.008 -10.449  1.00  0.00     0.096 A 
ATOM      7  C11 UNK     1      44.665   8.895 -10.605  1.00  0.00     0.084 A 
ATOM      8  C12 UNK     1      45.161   7.610 -10.374  1.00  0.00     0.118 A 
ATOM      9  C13 UNK     1      43.268   9.099 -11.016  1.00  0.00     0.190 A 
ATOM     10  C14 UNK     1      43.741  11.487 -11.058  1.00  0.00     0.090 A 
ATOM     11  C15 UNK     1      42.850  10.499 -11.237  1.00  0.00     0.094 A 
ENDROOT
BRANCH   3  12
ATOM     12  O2  UNK     1      48.618   8.408  -9.444  1.00  0.00    -0.315 OA
BRANCH  12  13
ATOM     13  C4  UNK     1      49.254   9.550  -8.869  1.00  0.00     0.299 C 
ATOM     14  O1  UNK     1      48.568   9.933  -7.679  1.00  0.00    -0.340 OA
ATOM     15  C5  UNK     1      49.170  11.056  -7.045  1.00  0.00     0.253 C 
ATOM     16  C3  UNK     1      49.121  12.284  -7.946  1.00  0.00     0.189 C 
ATOM     17  C1  UNK     1      49.751  11.984  -9.307  1.00  0.00     0.183 C 
ATOM     18  C2  UNK     1      49.211  10.681  -9.896  1.00  0.00     0.205 C 
BRANCH  15  19
ATOM     19  C6  UNK     1      48.330  11.254  -5.826  1.00  0.00     0.172 C 
ATOM     20  O7  UNK     1      47.788  12.302  -5.509  1.00  0.00    -0.648 OA
BRANCH  19  21
ATOM     21  O6  UNK     1      48.251  10.106  -5.108  1.00  0.00    -0.774 OA
ATOM     22  H10 UNK     1      48.959  10.047  -4.432  1.00  0.00     0.167 HD
ENDBRANCH  19  21
ENDBRANCH  15  19
BRANCH  16  23
ATOM     23  O5  UNK     1      49.847  13.340  -7.319  1.00  0.00    -0.390 OA
ATOM     24  H8  UNK     1      50.771  13.054  -7.219  1.00  0.00     0.210 HD
ENDBRANCH  16  23
BRANCH  17  25
ATOM     25  O3  UNK     1      49.444  13.068 -10.185  1.00  0.00    -0.390 OA
ATOM     26  H6  UNK     1      50.281  13.405 -10.543  1.00  0.00     0.210 HD
ENDBRANCH  17  25
BRANCH  18  27
ATOM     27  O4  UNK     1      50.011  10.300 -11.016  1.00  0.00    -0.388 OA
ATOM     28  H7  UNK     1      49.580  10.643 -11.816  1.00  0.00     0.210 HD
ENDBRANCH  18  27
ENDBRANCH  12  13
ENDBRANCH   3  12
BRANCH   5  29
ATOM     29  O9  UNK     1      46.987   6.196  -9.754  1.00  0.00    -0.356 OA
ATOM     30  H12 UNK     1      47.193   6.116  -8.806  1.00  0.00     0.218 HD
ENDBRANCH   5  29
BRANCH   8  31
ATOM     31  O10 UNK     1      44.385   6.499 -10.517  1.00  0.00    -0.357 OA
ATOM     32  H13 UNK     1      44.054   6.425 -11.425  1.00  0.00     0.217 HD
ENDBRANCH   8  31
BRANCH  10  33
ATOM     33  C16 UNK     1      43.378  12.905 -11.254  1.00  0.00    -0.002 A 
ATOM     34  C17 UNK     1      42.041  13.268 -11.440  1.00  0.00     0.014 A 
ATOM     35  C19 UNK     1      41.699  14.608 -11.625  1.00  0.00     0.001 A 
ATOM     36  C21 UNK     1      42.691  15.589 -11.623  1.00  0.00     0.000 A 
ATOM     37  C20 UNK     1      44.026  15.230 -11.438  1.00  0.00     0.001 A 
ATOM     38  C18 UNK     1      44.368  13.890 -11.253  1.00  0.00     0.014 A 
ENDBRANCH  10  33
TORSDOF 10
ENDMDL
MODEL 16
REMARK VINA RESULT:      -3.7      2.689      5.133
REMARK  10 active torsions:
REMARK  status: ('A' for Active; 'I' for Inactive)
REMARK    1  A    between atoms: O2_2  and  C4_15 
REMARK    2  A    between atoms: O2_2  and  C7_18 
REMARK    3  A    between atoms: O3_3  and  C1_12 
REMARK    4  A    between atoms: O4_4  and  C2_13 
REMARK    5  A    between atoms: O5_5  and  C3_14 
REMARK    6  A    between atoms: O6_6  and  C6_17 
REMARK    7  A    between atoms: O9_9  and  C9_20 
REMARK    8  A    between atoms: O10_10  and  C12_23 
REMARK    9  A    between atoms: C5_16  and  C6_17 
REMARK   10  A    between atoms: C14_25  and  C16_27 
ROOT
ATOM      1  O8  UNK     1      45.032   9.530 -10.211  1.00  0.00    -0.309 OA
ATOM      2  O11 UNK     1      44.227  13.314 -11.489  1.00  0.00    -0.287 OA
ATOM      3  C7  UNK     1      48.450  10.739 -10.579  1.00  0.00     0.110 A 
ATOM      4  C8  UNK     1      47.360   9.910 -10.313  1.00  0.00     0.078 A 
ATOM      5  C9  UNK     1      48.243  12.048 -11.018  1.00  0.00     0.134 A 
ATOM      6  C10 UNK     1      46.062  10.392 -10.488  1.00  0.00     0.096 A 
ATOM      7  C11 UNK     1      45.858  11.699 -10.927  1.00  0.00     0.084 A 
ATOM      8  C12 UNK     1      46.947  12.533 -11.194  1.00  0.00     0.118 A 
ATOM      9  C13 UNK     1      44.480  12.180 -11.104  1.00  0.00     0.190 A 
ATOM     10  C14 UNK     1      43.731   9.984 -10.369  1.00  0.00     0.090 A 
ATOM     11  C15 UNK     1      43.406  11.216 -10.790  1.00  0.00     0.094 A 
ENDROOT
BRANCH   3  12
ATOM     12  O2  UNK     1      49.714  10.259 -10.405  1.00  0.00    -0.315 OA
BRANCH  12  13
ATOM     13  C4  UNK     1      49.854   9.119  -9.555  1.00  0.00     0.299 C 
ATOM     14  O1  UNK     1      49.225   7.991 -10.157  1.00  0.00    -0.340 OA
ATOM     15  C5  UNK     1      49.351   6.815  -9.365  1.00  0.00     0.253 C 
ATOM     16  C3  UNK     1      48.658   6.985  -8.018  1.00  0.00     0.189 C 
ATOM     17  C1  UNK     1      49.180   8.226  -7.294  1.00  0.00     0.183 C 
ATOM     18  C2  UNK     1      49.193   9.446  -8.216  1.00  0.00     0.205 C 
BRANCH  15  19
ATOM     19  C6  UNK     1      48.669   5.771 -10.189  1.00  0.00     0.172 C 
ATOM     20  O7  UNK     1      47.716   5.099  -9.822  1.00  0.00    -0.648 OA
BRANCH  19  21
ATOM     21  O6  UNK     1      49.254   5.665 -11.407  1.00  0.00    -0.774 OA
ATOM     22  H10 UNK     1      50.082   5.141 -11.371  1.00  0.00     0.167 HD
ENDBRANCH  19  21
ENDBRANCH  15  19
BRANCH  16  23
ATOM     23  O5  UNK     1      48.922   5.834  -7.219  1.00  0.00    -0.390 OA
ATOM     24  H8  UNK     1      49.309   6.132  -6.378  1.00  0.00     0.210 HD
ENDBRANCH  16  23
BRANCH  17  25
ATOM     25  O3  UNK     1      48.323   8.481  -6.179  1.00  0.00    -0.390 OA
ATOM     26  H6  UNK     1      48.714   9.207  -5.666  1.00  0.00     0.210 HD
ENDBRANCH  17  25
BRANCH  18  27
ATOM     27  O4  UNK     1      49.932  10.499  -7.597  1.00  0.00    -0.388 OA
ATOM     28  H7  UNK     1      49.802  11.302  -8.128  1.00  0.00     0.210 HD
ENDBRANCH  18  27
ENDBRANCH  12  13
ENDBRANCH   3  12
BRANCH   5  29
ATOM     29  O9  UNK     1      49.314  12.853 -11.276  1.00  0.00    -0.356 OA
ATOM     30  H12 UNK     1      49.803  12.990 -10.446  1.00  0.00     0.218 HD
ENDBRANCH   5  29
BRANCH   8  31
ATOM     31  O10 UNK     1      46.785  13.816 -11.624  1.00  0.00    -0.357 OA
ATOM     32  H13 UNK     1      46.880  13.870 -12.587  1.00  0.00     0.217 HD
ENDBRANCH   8  31
BRANCH  10  33
ATOM     33  C16 UNK     1      42.701   8.975 -10.049  1.00  0.00    -0.002 A 
ATOM     34  C17 UNK     1      41.396   9.375  -9.746  1.00  0.00     0.014 A 
ATOM     35  C19 UNK     1      40.423   8.422  -9.445  1.00  0.00     0.001 A 
ATOM     36  C21 UNK     1      40.750   7.066  -9.446  1.00  0.00     0.000 A 
ATOM     37  C20 UNK     1      42.051   6.663  -9.748  1.00  0.00     0.001 A 
ATOM     38  C18 UNK     1      43.024   7.616 -10.049  1.00  0.00     0.014 A 
ENDBRANCH  10  33
TORSDOF 10
ENDMDL
MODEL 17
REMARK VINA RESULT:      -3.7      3.596      5.460
REMARK  10 active torsions:
REMARK  status: ('A' for Active; 'I' for Inactive)
REMARK    1  A    between atoms: O2_2  and  C4_15 
REMARK    2  A    between atoms: O2_2  and  C7_18 
REMARK    3  A    between atoms: O3_3  and  C1_12 
REMARK    4  A    between atoms: O4_4  and  C2_13 
REMARK    5  A    between atoms: O5_5  and  C3_14 
REMARK    6  A    between atoms: O6_6  and  C6_17 
REMARK    7  A    between atoms: O9_9  and  C9_20 
REMARK    8  A    between atoms: O10_10  and  C12_23 
REMARK    9  A    between atoms: C5_16  and  C6_17 
REMARK   10  A    between atoms: C14_25  and  C16_27 
ROOT
ATOM      1  O8  UNK     1      45.433  12.688 -10.919  1.00  0.00    -0.309 OA
ATOM      2  O11 UNK     1      42.543   9.862 -11.432  1.00  0.00    -0.287 OA
ATOM      3  C7  UNK     1      47.568   9.754 -11.250  1.00  0.00     0.110 A 
ATOM      4  C8  UNK     1      47.148  11.073 -11.080  1.00  0.00     0.078 A 
ATOM      5  C9  UNK     1      46.629   8.737 -11.432  1.00  0.00     0.134 A 
ATOM      6  C10 UNK     1      45.785  11.374 -11.092  1.00  0.00     0.096 A 
ATOM      7  C11 UNK     1      44.849  10.357 -11.274  1.00  0.00     0.084 A 
ATOM      8  C12 UNK     1      45.266   9.035 -11.445  1.00  0.00     0.118 A 
ATOM      9  C13 UNK     1      43.419  10.703 -11.281  1.00  0.00     0.190 A 
ATOM     10  C14 UNK     1      44.086  13.018 -10.934  1.00  0.00     0.090 A 
ATOM     11  C15 UNK     1      43.092  12.131 -11.094  1.00  0.00     0.094 A 
ENDROOT
BRANCH   3  12
ATOM     12  O2  UNK     1      48.902   9.470 -11.237  1.00  0.00    -0.315 OA
BRANCH  12  13
ATOM     13  C4  UNK     1      49.541   9.459  -9.960  1.00  0.00     0.299 C 
ATOM     14  O1  UNK     1      48.931   8.478  -9.125  1.00  0.00    -0.340 OA
ATOM     15  C5  UNK     1      49.541   8.404  -7.842  1.00  0.00     0.253 C 
ATOM     16  C3  UNK     1      49.389   9.719  -7.087  1.00  0.00     0.189 C 
ATOM     17  C1  UNK     1      49.929  10.885  -7.915  1.00  0.00     0.183 C 
ATOM     18  C2  UNK     1      49.389  10.850  -9.345  1.00  0.00     0.205 C 
BRANCH  15  19
ATOM     19  C6  UNK     1      48.785   7.308  -7.164  1.00  0.00     0.172 C 
ATOM     20  O7  UNK     1      48.953   6.113  -7.360  1.00  0.00    -0.648 OA
BRANCH  19  21
ATOM     21  O6  UNK     1      47.876   7.818  -6.297  1.00  0.00    -0.774 OA
ATOM     22  H10 UNK     1      48.167   7.725  -5.365  1.00  0.00     0.167 HD
ENDBRANCH  19  21
ENDBRANCH  15  19
BRANCH  16  23
ATOM     23  O5  UNK     1      50.125   9.633  -5.867  1.00  0.00    -0.390 OA
ATOM     24  H8  UNK     1      49.863   8.814  -5.414  1.00  0.00     0.210 HD
ENDBRANCH  16  23
BRANCH  17  25
ATOM     25  O3  UNK     1      49.526  12.101  -7.282  1.00  0.00    -0.390 OA
ATOM     26  H6  UNK     1      48.638  11.963  -6.915  1.00  0.00     0.210 HD
ENDBRANCH  17  25
BRANCH  18  27
ATOM     27  O4  UNK     1      50.119  11.777 -10.149  1.00  0.00    -0.388 OA
ATOM     28  H7  UNK     1      50.955  11.969  -9.693  1.00  0.00     0.210 HD
ENDBRANCH  18  27
ENDBRANCH  12  13
ENDBRANCH   3  12
BRANCH   5  29
ATOM     29  O9  UNK     1      47.048   7.449 -11.598  1.00  0.00    -0.356 OA
ATOM     30  H12 UNK     1      47.213   7.063 -10.720  1.00  0.00     0.218 HD
ENDBRANCH   5  29
BRANCH   8  31
ATOM     31  O10 UNK     1      44.379   8.016 -11.625  1.00  0.00    -0.357 OA
ATOM     32  H13 UNK     1      44.591   7.513 -12.426  1.00  0.00     0.217 HD
ENDBRANCH   8  31
BRANCH  10  33
ATOM     33  C16 UNK     1      43.819  14.457 -10.735  1.00  0.00    -0.002 A 
ATOM     34  C17 UNK     1      43.029  14.882  -9.663  1.00  0.00     0.014 A 
ATOM     35  C19 UNK     1      42.777  16.241  -9.474  1.00  0.00     0.001 A 
ATOM     36  C21 UNK     1      43.315  17.180 -10.355  1.00  0.00     0.000 A 
ATOM     37  C20 UNK     1      44.104  16.759 -11.426  1.00  0.00     0.001 A 
ATOM     38  C18 UNK     1      44.355  15.400 -11.615  1.00  0.00     0.014 A 
ENDBRANCH  10  33
TORSDOF 10
ENDMDL
MODEL 18
REMARK VINA RESULT:      -3.7      1.307      2.288
REMARK  10 active torsions:
REMARK  status: ('A' for Active; 'I' for Inactive)
REMARK    1  A    between atoms: O2_2  and  C4_15 
REMARK    2  A    between atoms: O2_2  and  C7_18 
REMARK    3  A    between atoms: O3_3  and  C1_12 
REMARK    4  A    between atoms: O4_4  and  C2_13 
REMARK    5  A    between atoms: O5_5  and  C3_14 
REMARK    6  A    between atoms: O6_6  and  C6_17 
REMARK    7  A    between atoms: O9_9  and  C9_20 
REMARK    8  A    between atoms: O10_10  and  C12_23 
REMARK    9  A    between atoms: C5_16  and  C6_17 
REMARK   10  A    between atoms: C14_25  and  C16_27 
ROOT
ATOM      1  O8  UNK     1      45.216   8.990  -9.255  1.00  0.00    -0.309 OA
ATOM      2  O11 UNK     1      46.741   6.045 -11.621  1.00  0.00    -0.287 OA
ATOM      3  C7  UNK     1      48.332   8.386  -7.464  1.00  0.00     0.110 A 
ATOM      4  C8  UNK     1      47.092   8.915  -7.823  1.00  0.00     0.078 A 
ATOM      5  C9  UNK     1      48.911   7.376  -8.234  1.00  0.00     0.134 A 
ATOM      6  C10 UNK     1      46.431   8.432  -8.953  1.00  0.00     0.096 A 
ATOM      7  C11 UNK     1      47.012   7.422  -9.719  1.00  0.00     0.084 A 
ATOM      8  C12 UNK     1      48.253   6.890  -9.364  1.00  0.00     0.118 A 
ATOM      9  C13 UNK     1      46.293   6.930 -10.905  1.00  0.00     0.190 A 
ATOM     10  C14 UNK     1      44.540   8.535 -10.377  1.00  0.00     0.090 A 
ATOM     11  C15 UNK     1      44.991   7.566 -11.189  1.00  0.00     0.094 A 
ENDROOT
BRANCH   3  12
ATOM     12  O2  UNK     1      48.969   8.866  -6.358  1.00  0.00    -0.315 OA
BRANCH  12  13
ATOM     13  C4  UNK     1      49.434  10.214  -6.422  1.00  0.00     0.299 C 
ATOM     14  O1  UNK     1      48.757  11.004  -5.448  1.00  0.00    -0.340 OA
ATOM     15  C5  UNK     1      49.196  12.358  -5.448  1.00  0.00     0.253 C 
ATOM     16  C3  UNK     1      48.896  13.030  -6.783  1.00  0.00     0.189 C 
ATOM     17  C1  UNK     1      49.496  12.230  -7.939  1.00  0.00     0.183 C 
ATOM     18  C2  UNK     1      49.150  10.745  -7.828  1.00  0.00     0.205 C 
BRANCH  15  19
ATOM     19  C6  UNK     1      48.400  12.977  -4.346  1.00  0.00     0.172 C 
ATOM     20  O7  UNK     1      47.311  12.581  -3.958  1.00  0.00    -0.648 OA
BRANCH  19  21
ATOM     21  O6  UNK     1      49.049  14.050  -3.831  1.00  0.00    -0.774 OA
ATOM     22  H10 UNK     1      49.964  13.828  -3.557  1.00  0.00     0.167 HD
ENDBRANCH  19  21
ENDBRANCH  15  19
BRANCH  16  23
ATOM     23  O5  UNK     1      49.468  14.337  -6.775  1.00  0.00    -0.390 OA
ATOM     24  H8  UNK     1      49.108  14.819  -6.011  1.00  0.00     0.210 HD
ENDBRANCH  16  23
BRANCH  17  25
ATOM     25  O3  UNK     1      48.967  12.752  -9.159  1.00  0.00    -0.390 OA
ATOM     26  H6  UNK     1      48.756  13.689  -9.013  1.00  0.00     0.210 HD
ENDBRANCH  17  25
BRANCH  18  27
ATOM     27  O4  UNK     1      49.943  10.003  -8.755  1.00  0.00    -0.388 OA
ATOM     28  H7  UNK     1      50.657   9.574  -8.255  1.00  0.00     0.210 HD
ENDBRANCH  18  27
ENDBRANCH  12  13
ENDBRANCH   3  12
BRANCH   5  29
ATOM     29  O9  UNK     1      50.124   6.863  -7.876  1.00  0.00    -0.356 OA
ATOM     30  H12 UNK     1      50.818   7.472  -8.183  1.00  0.00     0.218 HD
ENDBRANCH   5  29
BRANCH   8  31
ATOM     31  O10 UNK     1      48.850   5.903 -10.090  1.00  0.00    -0.357 OA
ATOM     32  H13 UNK     1      49.815   5.954 -10.011  1.00  0.00     0.217 HD
ENDBRANCH   8  31
BRANCH  10  33
ATOM     33  C16 UNK     1      43.241   9.200 -10.606  1.00  0.00    -0.002 A 
ATOM     34  C17 UNK     1      43.170  10.342 -11.408  1.00  0.00     0.014 A 
ATOM     35  C19 UNK     1      41.942  10.969 -11.625  1.00  0.00     0.001 A 
ATOM     36  C21 UNK     1      40.784  10.457 -11.042  1.00  0.00     0.000 A 
ATOM     37  C20 UNK     1      40.851   9.316 -10.241  1.00  0.00     0.001 A 
ATOM     38  C18 UNK     1      42.078   8.689 -10.024  1.00  0.00     0.014 A 
ENDBRANCH  10  33
TORSDOF 10
ENDMDL
