MODEL 1
REMARK VINA RESULT:      -6.4      0.000      0.000
REMARK  10 active torsions:
REMARK  status: ('A' for Active; 'I' for Inactive)
REMARK    1  A    between atoms: O2_2  and  C4_15 
REMARK    2  A    between atoms: O2_2  and  C7_18 
REMARK    3  A    between atoms: O3_3  and  C1_12 
REMARK    4  A    between atoms: O4_4  and  C2_13 
REMARK    5  A    between atoms: O5_5  and  C3_14 
REMARK    6  A    between atoms: O6_6  and  C6_17 
REMARK    7  A    between atoms: O9_9  and  C9_20 
REMARK    8  A    between atoms: O10_10  and  C12_23 
REMARK    9  A    between atoms: C5_16  and  C6_17 
REMARK   10  A    between atoms: C14_25  and  C16_27 
ROOT
ATOM      1  O8  UNK     1      38.122  22.439  11.264  1.00  0.00    -0.309 OA
ATOM      2  O11 UNK     1      36.367  20.684  14.495  1.00  0.00    -0.287 OA
ATOM      3  C7  UNK     1      40.378  19.605  11.659  1.00  0.00     0.110 A 
ATOM      4  C8  UNK     1      39.793  20.773  11.171  1.00  0.00     0.078 A 
ATOM      5  C9  UNK     1      39.826  18.953  12.763  1.00  0.00     0.134 A 
ATOM      6  C10 UNK     1      38.652  21.289  11.788  1.00  0.00     0.096 A 
ATOM      7  C11 UNK     1      38.103  20.636  12.890  1.00  0.00     0.084 A 
ATOM      8  C12 UNK     1      38.686  19.466  13.383  1.00  0.00     0.118 A 
ATOM      9  C13 UNK     1      36.901  21.202  13.523  1.00  0.00     0.190 A 
ATOM     10  C14 UNK     1      36.984  22.970  11.852  1.00  0.00     0.090 A 
ATOM     11  C15 UNK     1      36.367  22.439  12.919  1.00  0.00     0.094 A 
ENDROOT
BRANCH   3  12
ATOM     12  O2  UNK     1      41.492  19.110  11.048  1.00  0.00    -0.315 OA
BRANCH  12  13
ATOM     13  C4  UNK     1      42.751  19.528  11.577  1.00  0.00     0.299 C 
ATOM     14  O1  UNK     1      43.255  20.621  10.813  1.00  0.00    -0.340 OA
ATOM     15  C5  UNK     1      44.501  21.099  11.308  1.00  0.00     0.253 C 
ATOM     16  C3  UNK     1      45.575  20.021  11.216  1.00  0.00     0.189 C 
ATOM     17  C1  UNK     1      45.124  18.745  11.927  1.00  0.00     0.183 C 
ATOM     18  C2  UNK     1      43.712  18.341  11.504  1.00  0.00     0.205 C 
BRANCH  15  19
ATOM     19  C6  UNK     1      44.814  22.244  10.401  1.00  0.00     0.172 C 
ATOM     20  O7  UNK     1      44.252  23.329  10.421  1.00  0.00    -0.648 OA
BRANCH  19  21
ATOM     21  O6  UNK     1      45.811  21.917   9.544  1.00  0.00    -0.774 OA
ATOM     22  H10 UNK     1      45.491  21.842   8.620  1.00  0.00     0.167 HD
ENDBRANCH  19  21
ENDBRANCH  15  19
BRANCH  16  23
ATOM     23  O5  UNK     1      46.763  20.506  11.839  1.00  0.00    -0.390 OA
ATOM     24  H8  UNK     1      46.922  19.977  12.640  1.00  0.00     0.210 HD
ENDBRANCH  16  23
BRANCH  17  25
ATOM     25  O3  UNK     1      46.040  17.702  11.587  1.00  0.00    -0.390 OA
ATOM     26  H6  UNK     1      45.525  16.892  11.442  1.00  0.00     0.210 HD
ENDBRANCH  17  25
BRANCH  18  27
ATOM     27  O4  UNK     1      43.229  17.320  12.379  1.00  0.00    -0.388 OA
ATOM     28  H7  UNK     1      42.271  17.241  12.239  1.00  0.00     0.210 HD
ENDBRANCH  18  27
ENDBRANCH  12  13
ENDBRANCH   3  12
BRANCH   5  29
ATOM     29  O9  UNK     1      40.405  17.811  13.235  1.00  0.00    -0.356 OA
ATOM     30  H12 UNK     1      39.707  17.149  13.379  1.00  0.00     0.218 HD
ENDBRANCH   5  29
BRANCH   8  31
ATOM     31  O10 UNK     1      38.176  18.801  14.458  1.00  0.00    -0.357 OA
ATOM     32  H13 UNK     1      38.417  19.248  15.284  1.00  0.00     0.217 HD
ENDBRANCH   8  31
BRANCH  10  33
ATOM     33  C16 UNK     1      36.501  24.211  11.212  1.00  0.00    -0.002 A 
ATOM     34  C17 UNK     1      37.083  25.440  11.535  1.00  0.00     0.014 A 
ATOM     35  C19 UNK     1      36.627  26.611  10.929  1.00  0.00     0.001 A 
ATOM     36  C21 UNK     1      35.588  26.558  10.000  1.00  0.00     0.000 A 
ATOM     37  C20 UNK     1      35.005  25.333   9.676  1.00  0.00     0.001 A 
ATOM     38  C18 UNK     1      35.461  24.161  10.281  1.00  0.00     0.014 A 
ENDBRANCH  10  33
TORSDOF 10
ENDMDL
MODEL 2
REMARK VINA RESULT:      -6.3      1.136      1.600
REMARK  10 active torsions:
REMARK  status: ('A' for Active; 'I' for Inactive)
REMARK    1  A    between atoms: O2_2  and  C4_15 
REMARK    2  A    between atoms: O2_2  and  C7_18 
REMARK    3  A    between atoms: O3_3  and  C1_12 
REMARK    4  A    between atoms: O4_4  and  C2_13 
REMARK    5  A    between atoms: O5_5  and  C3_14 
REMARK    6  A    between atoms: O6_6  and  C6_17 
REMARK    7  A    between atoms: O9_9  and  C9_20 
REMARK    8  A    between atoms: O10_10  and  C12_23 
REMARK    9  A    between atoms: C5_16  and  C6_17 
REMARK   10  A    between atoms: C14_25  and  C16_27 
ROOT
ATOM      1  O8  UNK     1      38.538  22.535  11.104  1.00  0.00    -0.309 OA
ATOM      2  O11 UNK     1      36.940  20.089  13.943  1.00  0.00    -0.287 OA
ATOM      3  C7  UNK     1      41.200  20.052  11.271  1.00  0.00     0.110 A 
ATOM      4  C8  UNK     1      40.458  21.175  10.904  1.00  0.00     0.078 A 
ATOM      5  C9  UNK     1      40.709  19.173  12.237  1.00  0.00     0.134 A 
ATOM      6  C10 UNK     1      39.221  21.416  11.505  1.00  0.00     0.096 A 
ATOM      7  C11 UNK     1      38.733  20.536  12.469  1.00  0.00     0.084 A 
ATOM      8  C12 UNK     1      39.474  19.411  12.840  1.00  0.00     0.118 A 
ATOM      9  C13 UNK     1      37.428  20.816  13.088  1.00  0.00     0.190 A 
ATOM     10  C14 UNK     1      37.304  22.797  11.678  1.00  0.00     0.090 A 
ATOM     11  C15 UNK     1      36.731  22.031  12.619  1.00  0.00     0.094 A 
ENDROOT
BRANCH   3  12
ATOM     12  O2  UNK     1      42.407  19.825  10.677  1.00  0.00    -0.315 OA
BRANCH  12  13
ATOM     13  C4  UNK     1      43.509  20.598  11.153  1.00  0.00     0.299 C 
ATOM     14  O1  UNK     1      43.358  21.955  10.743  1.00  0.00    -0.340 OA
ATOM     15  C5  UNK     1      44.418  22.783  11.207  1.00  0.00     0.253 C 
ATOM     16  C3  UNK     1      45.755  22.338  10.626  1.00  0.00     0.189 C 
ATOM     17  C1  UNK     1      46.008  20.859  10.919  1.00  0.00     0.183 C 
ATOM     18  C2  UNK     1      44.790  20.005  10.566  1.00  0.00     0.205 C 
BRANCH  15  19
ATOM     19  C6  UNK     1      44.041  24.139  10.705  1.00  0.00     0.172 C 
ATOM     20  O7  UNK     1      43.368  24.356   9.709  1.00  0.00    -0.648 OA
BRANCH  19  21
ATOM     21  O6  UNK     1      44.551  25.105  11.507  1.00  0.00    -0.774 OA
ATOM     22  H10 UNK     1      44.072  25.164  12.361  1.00  0.00     0.167 HD
ENDBRANCH  19  21
ENDBRANCH  15  19
BRANCH  16  23
ATOM     23  O5  UNK     1      46.793  23.115  11.221  1.00  0.00    -0.390 OA
ATOM     24  H8  UNK     1      46.419  23.976  11.473  1.00  0.00     0.210 HD
ENDBRANCH  16  23
BRANCH  17  25
ATOM     25  O3  UNK     1      47.127  20.439  10.137  1.00  0.00    -0.390 OA
ATOM     26  H6  UNK     1      46.798  19.838   9.448  1.00  0.00     0.210 HD
ENDBRANCH  17  25
BRANCH  18  27
ATOM     27  O4  UNK     1      44.961  18.692  11.102  1.00  0.00    -0.388 OA
ATOM     28  H7  UNK     1      45.092  18.780  12.060  1.00  0.00     0.210 HD
ENDBRANCH  18  27
ENDBRANCH  12  13
ENDBRANCH   3  12
BRANCH   5  29
ATOM     29  O9  UNK     1      41.442  18.077  12.591  1.00  0.00    -0.356 OA
ATOM     30  H12 UNK     1      40.994  17.284  12.248  1.00  0.00     0.218 HD
ENDBRANCH   5  29
BRANCH   8  31
ATOM     31  O10 UNK     1      39.027  18.530  13.779  1.00  0.00    -0.357 OA
ATOM     32  H13 UNK     1      38.702  18.998  14.562  1.00  0.00     0.217 HD
ENDBRANCH   8  31
BRANCH  10  33
ATOM     33  C16 UNK     1      36.658  24.027  11.178  1.00  0.00    -0.002 A 
ATOM     34  C17 UNK     1      37.096  25.279  11.618  1.00  0.00     0.014 A 
ATOM     35  C19 UNK     1      36.487  26.441  11.145  1.00  0.00     0.001 A 
ATOM     36  C21 UNK     1      35.437  26.356  10.230  1.00  0.00     0.000 A 
ATOM     37  C20 UNK     1      34.997  25.108   9.789  1.00  0.00     0.001 A 
ATOM     38  C18 UNK     1      35.607  23.946  10.262  1.00  0.00     0.014 A 
ENDBRANCH  10  33
TORSDOF 10
ENDMDL
MODEL 3
REMARK VINA RESULT:      -6.3      2.933      5.157
REMARK  10 active torsions:
REMARK  status: ('A' for Active; 'I' for Inactive)
REMARK    1  A    between atoms: O2_2  and  C4_15 
REMARK    2  A    between atoms: O2_2  and  C7_18 
REMARK    3  A    between atoms: O3_3  and  C1_12 
REMARK    4  A    between atoms: O4_4  and  C2_13 
REMARK    5  A    between atoms: O5_5  and  C3_14 
REMARK    6  A    between atoms: O6_6  and  C6_17 
REMARK    7  A    between atoms: O9_9  and  C9_20 
REMARK    8  A    between atoms: O10_10  and  C12_23 
REMARK    9  A    between atoms: C5_16  and  C6_17 
REMARK   10  A    between atoms: C14_25  and  C16_27 
ROOT
ATOM      1  O8  UNK     1      38.839  25.073  12.046  1.00  0.00    -0.309 OA
ATOM      2  O11 UNK     1      39.956  28.932  12.725  1.00  0.00    -0.287 OA
ATOM      3  C7  UNK     1      42.325  24.501  12.940  1.00  0.00     0.110 A 
ATOM      4  C8  UNK     1      41.003  24.277  12.558  1.00  0.00     0.078 A 
ATOM      5  C9  UNK     1      42.772  25.800  13.190  1.00  0.00     0.134 A 
ATOM      6  C10 UNK     1      40.126  25.356  12.426  1.00  0.00     0.096 A 
ATOM      7  C11 UNK     1      40.575  26.651  12.674  1.00  0.00     0.084 A 
ATOM      8  C12 UNK     1      41.899  26.880  13.058  1.00  0.00     0.118 A 
ATOM      9  C13 UNK     1      39.631  27.769  12.525  1.00  0.00     0.190 A 
ATOM     10  C14 UNK     1      37.944  26.124  11.913  1.00  0.00     0.090 A 
ATOM     11  C15 UNK     1      38.256  27.413  12.119  1.00  0.00     0.094 A 
ENDROOT
BRANCH   3  12
ATOM     12  O2  UNK     1      43.173  23.441  13.068  1.00  0.00    -0.315 OA
BRANCH  12  13
ATOM     13  C4  UNK     1      43.514  22.747  11.867  1.00  0.00     0.299 C 
ATOM     14  O1  UNK     1      43.239  21.356  12.021  1.00  0.00    -0.340 OA
ATOM     15  C5  UNK     1      43.538  20.612  10.845  1.00  0.00     0.253 C 
ATOM     16  C3  UNK     1      45.023  20.691  10.510  1.00  0.00     0.189 C 
ATOM     17  C1  UNK     1      45.478  22.146  10.402  1.00  0.00     0.183 C 
ATOM     18  C2  UNK     1      45.002  22.969  11.599  1.00  0.00     0.205 C 
BRANCH  15  19
ATOM     19  C6  UNK     1      43.145  19.218  11.211  1.00  0.00     0.172 C 
ATOM     20  O7  UNK     1      43.643  18.563  12.116  1.00  0.00    -0.648 OA
BRANCH  19  21
ATOM     21  O6  UNK     1      42.157  18.770  10.399  1.00  0.00    -0.774 OA
ATOM     22  H10 UNK     1      42.509  18.238   9.653  1.00  0.00     0.167 HD
ENDBRANCH  19  21
ENDBRANCH  15  19
BRANCH  16  23
ATOM     23  O5  UNK     1      45.245  20.039   9.261  1.00  0.00    -0.390 OA
ATOM     24  H8  UNK     1      44.403  20.025   8.774  1.00  0.00     0.210 HD
ENDBRANCH  16  23
BRANCH  17  25
ATOM     25  O3  UNK     1      46.906  22.160  10.351  1.00  0.00    -0.390 OA
ATOM     26  H6  UNK     1      47.229  22.501  11.202  1.00  0.00     0.210 HD
ENDBRANCH  17  25
BRANCH  18  27
ATOM     27  O4  UNK     1      45.206  24.357  11.331  1.00  0.00    -0.388 OA
ATOM     28  H7  UNK     1      45.414  24.792  12.174  1.00  0.00     0.210 HD
ENDBRANCH  18  27
ENDBRANCH  12  13
ENDBRANCH   3  12
BRANCH   5  29
ATOM     29  O9  UNK     1      44.068  26.011  13.563  1.00  0.00    -0.356 OA
ATOM     30  H12 UNK     1      44.393  26.808  13.110  1.00  0.00     0.218 HD
ENDBRANCH   5  29
BRANCH   8  31
ATOM     31  O10 UNK     1      42.372  28.133  13.309  1.00  0.00    -0.357 OA
ATOM     32  H13 UNK     1      42.524  28.259  14.258  1.00  0.00     0.217 HD
ENDBRANCH   8  31
BRANCH  10  33
ATOM     33  C16 UNK     1      36.589  25.710  11.497  1.00  0.00    -0.002 A 
ATOM     34  C17 UNK     1      35.952  24.646  12.143  1.00  0.00     0.014 A 
ATOM     35  C19 UNK     1      34.671  24.256  11.750  1.00  0.00     0.001 A 
ATOM     36  C21 UNK     1      34.024  24.926  10.713  1.00  0.00     0.000 A 
ATOM     37  C20 UNK     1      34.657  25.988  10.066  1.00  0.00     0.001 A 
ATOM     38  C18 UNK     1      35.938  26.379  10.459  1.00  0.00     0.014 A 
ENDBRANCH  10  33
TORSDOF 10
ENDMDL
MODEL 4
REMARK VINA RESULT:      -6.2      2.268      3.024
REMARK  10 active torsions:
REMARK  status: ('A' for Active; 'I' for Inactive)
REMARK    1  A    between atoms: O2_2  and  C4_15 
REMARK    2  A    between atoms: O2_2  and  C7_18 
REMARK    3  A    between atoms: O3_3  and  C1_12 
REMARK    4  A    between atoms: O4_4  and  C2_13 
REMARK    5  A    between atoms: O5_5  and  C3_14 
REMARK    6  A    between atoms: O6_6  and  C6_17 
REMARK    7  A    between atoms: O9_9  and  C9_20 
REMARK    8  A    between atoms: O10_10  and  C12_23 
REMARK    9  A    between atoms: C5_16  and  C6_17 
REMARK   10  A    between atoms: C14_25  and  C16_27 
ROOT
ATOM      1  O8  UNK     1      41.042  23.201  11.783  1.00  0.00    -0.309 OA
ATOM      2  O11 UNK     1      38.428  20.734  13.701  1.00  0.00    -0.287 OA
ATOM      3  C7  UNK     1      42.575  20.001  10.952  1.00  0.00     0.110 A 
ATOM      4  C8  UNK     1      42.332  21.373  11.029  1.00  0.00     0.078 A 
ATOM      5  C9  UNK     1      41.716  19.102  11.586  1.00  0.00     0.134 A 
ATOM      6  C10 UNK     1      41.228  21.843  11.742  1.00  0.00     0.096 A 
ATOM      7  C11 UNK     1      40.373  20.943  12.374  1.00  0.00     0.084 A 
ATOM      8  C12 UNK     1      40.612  19.568  12.299  1.00  0.00     0.118 A 
ATOM      9  C13 UNK     1      39.218  21.466  13.120  1.00  0.00     0.190 A 
ATOM     10  C14 UNK     1      39.949  23.697  12.478  1.00  0.00     0.090 A 
ATOM     11  C15 UNK     1      39.059  22.934  13.131  1.00  0.00     0.094 A 
ENDROOT
BRANCH   3  12
ATOM     12  O2  UNK     1      43.656  19.552  10.253  1.00  0.00    -0.315 OA
BRANCH  12  13
ATOM     13  C4  UNK     1      44.940  19.946  10.738  1.00  0.00     0.299 C 
ATOM     14  O1  UNK     1      45.737  20.424   9.657  1.00  0.00    -0.340 OA
ATOM     15  C5  UNK     1      47.025  20.854  10.083  1.00  0.00     0.253 C 
ATOM     16  C3  UNK     1      47.818  19.698  10.681  1.00  0.00     0.189 C 
ATOM     17  C1  UNK     1      47.032  19.027  11.808  1.00  0.00     0.183 C 
ATOM     18  C2  UNK     1      45.595  18.724  11.383  1.00  0.00     0.205 C 
BRANCH  15  19
ATOM     19  C6  UNK     1      47.659  21.342   8.822  1.00  0.00     0.172 C 
ATOM     20  O7  UNK     1      48.861  21.478   8.647  1.00  0.00    -0.648 OA
BRANCH  19  21
ATOM     21  O6  UNK     1      46.716  21.618   7.888  1.00  0.00    -0.774 OA
ATOM     22  H10 UNK     1      47.102  21.697   6.989  1.00  0.00     0.167 HD
ENDBRANCH  19  21
ENDBRANCH  15  19
BRANCH  16  23
ATOM     23  O5  UNK     1      49.043  20.206  11.206  1.00  0.00    -0.390 OA
ATOM     24  H8  UNK     1      48.934  20.326  12.165  1.00  0.00     0.210 HD
ENDBRANCH  16  23
BRANCH  17  25
ATOM     25  O3  UNK     1      47.696  17.808  12.146  1.00  0.00    -0.390 OA
ATOM     26  H6  UNK     1      47.625  17.212  11.383  1.00  0.00     0.210 HD
ENDBRANCH  17  25
BRANCH  18  27
ATOM     27  O4  UNK     1      44.829  18.358  12.530  1.00  0.00    -0.388 OA
ATOM     28  H7  UNK     1      43.895  18.537  12.330  1.00  0.00     0.210 HD
ENDBRANCH  18  27
ENDBRANCH  12  13
ENDBRANCH   3  12
BRANCH   5  29
ATOM     29  O9  UNK     1      41.961  17.761  11.505  1.00  0.00    -0.356 OA
ATOM     30  H12 UNK     1      42.396  17.578  10.655  1.00  0.00     0.218 HD
ENDBRANCH   5  29
BRANCH   8  31
ATOM     31  O10 UNK     1      39.797  18.659  12.904  1.00  0.00    -0.357 OA
ATOM     32  H13 UNK     1      39.052  18.429  12.329  1.00  0.00     0.217 HD
ENDBRANCH   8  31
BRANCH  10  33
ATOM     33  C16 UNK     1      39.846  25.171  12.462  1.00  0.00    -0.002 A 
ATOM     34  C17 UNK     1      40.998  25.956  12.558  1.00  0.00     0.014 A 
ATOM     35  C19 UNK     1      40.901  27.347  12.542  1.00  0.00     0.001 A 
ATOM     36  C21 UNK     1      39.652  27.958  12.429  1.00  0.00     0.000 A 
ATOM     37  C20 UNK     1      38.500  27.178  12.332  1.00  0.00     0.001 A 
ATOM     38  C18 UNK     1      38.598  25.786  12.348  1.00  0.00     0.014 A 
ENDBRANCH  10  33
TORSDOF 10
ENDMDL
MODEL 5
REMARK VINA RESULT:      -6.2      3.000      5.310
REMARK  10 active torsions:
REMARK  status: ('A' for Active; 'I' for Inactive)
REMARK    1  A    between atoms: O2_2  and  C4_15 
REMARK    2  A    between atoms: O2_2  and  C7_18 
REMARK    3  A    between atoms: O3_3  and  C1_12 
REMARK    4  A    between atoms: O4_4  and  C2_13 
REMARK    5  A    between atoms: O5_5  and  C3_14 
REMARK    6  A    between atoms: O6_6  and  C6_17 
REMARK    7  A    between atoms: O9_9  and  C9_20 
REMARK    8  A    between atoms: O10_10  and  C12_23 
REMARK    9  A    between atoms: C5_16  and  C6_17 
REMARK   10  A    between atoms: C14_25  and  C16_27 
ROOT
ATOM      1  O8  UNK     1      38.240  25.426  12.077  1.00  0.00    -0.309 OA
ATOM      2  O11 UNK     1      39.909  29.105  12.613  1.00  0.00    -0.287 OA
ATOM      3  C7  UNK     1      41.595  24.387  13.050  1.00  0.00     0.110 A 
ATOM      4  C8  UNK     1      40.257  24.343  12.656  1.00  0.00     0.078 A 
ATOM      5  C9  UNK     1      42.226  25.615  13.252  1.00  0.00     0.134 A 
ATOM      6  C10 UNK     1      39.551  25.532  12.465  1.00  0.00     0.096 A 
ATOM      7  C11 UNK     1      40.184  26.757  12.667  1.00  0.00     0.084 A 
ATOM      8  C12 UNK     1      41.523  26.805  13.062  1.00  0.00     0.118 A 
ATOM      9  C13 UNK     1      39.417  27.995  12.456  1.00  0.00     0.190 A 
ATOM     10  C14 UNK     1      37.512  26.591  11.887  1.00  0.00     0.090 A 
ATOM     11  C15 UNK     1      38.009  27.827  12.044  1.00  0.00     0.094 A 
ENDROOT
BRANCH   3  12
ATOM     12  O2  UNK     1      42.276  23.220  13.235  1.00  0.00    -0.315 OA
BRANCH  12  13
ATOM     13  C4  UNK     1      42.131  22.227  12.218  1.00  0.00     0.299 C 
ATOM     14  O1  UNK     1      41.410  21.111  12.735  1.00  0.00    -0.340 OA
ATOM     15  C5  UNK     1      41.213  20.095  11.758  1.00  0.00     0.253 C 
ATOM     16  C3  UNK     1      42.546  19.524  11.286  1.00  0.00     0.189 C 
ATOM     17  C1  UNK     1      43.464  20.638  10.782  1.00  0.00     0.183 C 
ATOM     18  C2  UNK     1      43.530  21.799  11.775  1.00  0.00     0.205 C 
BRANCH  15  19
ATOM     19  C6  UNK     1      40.420  19.063  12.492  1.00  0.00     0.172 C 
ATOM     20  O7  UNK     1      40.826  17.951  12.798  1.00  0.00    -0.648 OA
BRANCH  19  21
ATOM     21  O6  UNK     1      39.177  19.525  12.772  1.00  0.00    -0.774 OA
ATOM     22  H10 UNK     1      38.537  18.795  12.911  1.00  0.00     0.167 HD
ENDBRANCH  19  21
ENDBRANCH  15  19
BRANCH  16  23
ATOM     23  O5  UNK     1      42.299  18.606  10.222  1.00  0.00    -0.390 OA
ATOM     24  H8  UNK     1      42.338  17.705  10.586  1.00  0.00     0.210 HD
ENDBRANCH  16  23
BRANCH  17  25
ATOM     25  O3  UNK     1      44.770  20.088  10.604  1.00  0.00    -0.390 OA
ATOM     26  H6  UNK     1      44.915  19.972   9.651  1.00  0.00     0.210 HD
ENDBRANCH  17  25
BRANCH  18  27
ATOM     27  O4  UNK     1      44.165  22.917  11.154  1.00  0.00    -0.388 OA
ATOM     28  H7  UNK     1      44.922  23.170  11.708  1.00  0.00     0.210 HD
ENDBRANCH  18  27
ENDBRANCH  12  13
ENDBRANCH   3  12
BRANCH   5  29
ATOM     29  O9  UNK     1      43.535  25.649  13.637  1.00  0.00    -0.356 OA
ATOM     30  H12 UNK     1      43.575  25.925  14.570  1.00  0.00     0.218 HD
ENDBRANCH   5  29
BRANCH   8  31
ATOM     31  O10 UNK     1      42.174  27.985  13.268  1.00  0.00    -0.357 OA
ATOM     32  H13 UNK     1      41.894  28.390  14.103  1.00  0.00     0.217 HD
ENDBRANCH   8  31
BRANCH  10  33
ATOM     33  C16 UNK     1      36.114  26.362  11.467  1.00  0.00    -0.002 A 
ATOM     34  C17 UNK     1      35.117  26.162  12.425  1.00  0.00     0.014 A 
ATOM     35  C19 UNK     1      33.797  25.948  12.028  1.00  0.00     0.001 A 
ATOM     36  C21 UNK     1      33.469  25.933  10.673  1.00  0.00     0.000 A 
ATOM     37  C20 UNK     1      34.462  26.132   9.713  1.00  0.00     0.001 A 
ATOM     38  C18 UNK     1      35.782  26.347  10.110  1.00  0.00     0.014 A 
ENDBRANCH  10  33
TORSDOF 10
ENDMDL
MODEL 6
REMARK VINA RESULT:      -6.1      3.640      9.465
REMARK  10 active torsions:
REMARK  status: ('A' for Active; 'I' for Inactive)
REMARK    1  A    between atoms: O2_2  and  C4_15 
REMARK    2  A    between atoms: O2_2  and  C7_18 
REMARK    3  A    between atoms: O3_3  and  C1_12 
REMARK    4  A    between atoms: O4_4  and  C2_13 
REMARK    5  A    between atoms: O5_5  and  C3_14 
REMARK    6  A    between atoms: O6_6  and  C6_17 
REMARK    7  A    between atoms: O9_9  and  C9_20 
REMARK    8  A    between atoms: O10_10  and  C12_23 
REMARK    9  A    between atoms: C5_16  and  C6_17 
REMARK   10  A    between atoms: C14_25  and  C16_27 
ROOT
ATOM      1  O8  UNK     1      40.828  23.487  11.942  1.00  0.00    -0.309 OA
ATOM      2  O11 UNK     1      43.631  26.442  12.041  1.00  0.00    -0.287 OA
ATOM      3  C7  UNK     1      38.669  26.281  12.842  1.00  0.00     0.110 A 
ATOM      4  C8  UNK     1      39.107  24.996  12.521  1.00  0.00     0.078 A 
ATOM      5  C9  UNK     1      39.578  27.339  12.891  1.00  0.00     0.134 A 
ATOM      6  C10 UNK     1      40.458  24.771  12.250  1.00  0.00     0.096 A 
ATOM      7  C11 UNK     1      41.363  25.829  12.301  1.00  0.00     0.084 A 
ATOM      8  C12 UNK     1      40.929  27.117  12.621  1.00  0.00     0.118 A 
ATOM      9  C13 UNK     1      42.781  25.562  12.012  1.00  0.00     0.190 A 
ATOM     10  C14 UNK     1      42.163  23.234  11.661  1.00  0.00     0.090 A 
ATOM     11  C15 UNK     1      43.129  24.166  11.682  1.00  0.00     0.094 A 
ENDROOT
BRANCH   3  12
ATOM     12  O2  UNK     1      37.347  26.491  13.105  1.00  0.00    -0.315 OA
BRANCH  12  13
ATOM     13  C4  UNK     1      36.427  25.558  12.537  1.00  0.00     0.299 C 
ATOM     14  O1  UNK     1      35.697  26.182  11.483  1.00  0.00    -0.340 OA
ATOM     15  C5  UNK     1      34.776  25.293  10.862  1.00  0.00     0.253 C 
ATOM     16  C3  UNK     1      33.719  24.820  11.852  1.00  0.00     0.189 C 
ATOM     17  C1  UNK     1      34.372  24.201  13.088  1.00  0.00     0.183 C 
ATOM     18  C2  UNK     1      35.476  25.100  13.644  1.00  0.00     0.205 C 
BRANCH  15  19
ATOM     19  C6  UNK     1      34.165  26.129   9.785  1.00  0.00     0.172 C 
ATOM     20  O7  UNK     1      32.965  26.300   9.625  1.00  0.00    -0.648 OA
BRANCH  19  21
ATOM     21  O6  UNK     1      35.125  26.675   9.000  1.00  0.00    -0.774 OA
ATOM     22  H10 UNK     1      34.749  27.085   8.192  1.00  0.00     0.167 HD
ENDBRANCH  19  21
ENDBRANCH  15  19
BRANCH  16  23
ATOM     23  O5  UNK     1      32.903  23.837  11.215  1.00  0.00    -0.390 OA
ATOM     24  H8  UNK     1      32.170  23.619  11.815  1.00  0.00     0.210 HD
ENDBRANCH  16  23
BRANCH  17  25
ATOM     25  O3  UNK     1      33.360  24.021  14.080  1.00  0.00    -0.390 OA
ATOM     26  H6  UNK     1      32.512  24.293  13.690  1.00  0.00     0.210 HD
ENDBRANCH  17  25
BRANCH  18  27
ATOM     27  O4  UNK     1      36.234  24.375  14.613  1.00  0.00    -0.388 OA
ATOM     28  H7  UNK     1      35.826  23.499  14.711  1.00  0.00     0.210 HD
ENDBRANCH  18  27
ENDBRANCH  12  13
ENDBRANCH   3  12
BRANCH   5  29
ATOM     29  O9  UNK     1      39.141  28.593  13.206  1.00  0.00    -0.356 OA
ATOM     30  H12 UNK     1      39.857  29.061  13.671  1.00  0.00     0.218 HD
ENDBRANCH   5  29
BRANCH   8  31
ATOM     31  O10 UNK     1      41.786  28.175  12.680  1.00  0.00    -0.357 OA
ATOM     32  H13 UNK     1      41.890  28.582  11.806  1.00  0.00     0.217 HD
ENDBRANCH   8  31
BRANCH  10  33
ATOM     33  C16 UNK     1      42.453  21.820  11.347  1.00  0.00    -0.002 A 
ATOM     34  C17 UNK     1      41.429  20.869  11.384  1.00  0.00     0.014 A 
ATOM     35  C19 UNK     1      41.703  19.534  11.087  1.00  0.00     0.001 A 
ATOM     36  C21 UNK     1      43.000  19.146  10.750  1.00  0.00     0.000 A 
ATOM     37  C20 UNK     1      44.024  20.093  10.712  1.00  0.00     0.001 A 
ATOM     38  C18 UNK     1      43.750  21.428  11.009  1.00  0.00     0.014 A 
ENDBRANCH  10  33
TORSDOF 10
ENDMDL
MODEL 7
REMARK VINA RESULT:      -5.9      2.402      4.938
REMARK  10 active torsions:
REMARK  status: ('A' for Active; 'I' for Inactive)
REMARK    1  A    between atoms: O2_2  and  C4_15 
REMARK    2  A    between atoms: O2_2  and  C7_18 
REMARK    3  A    between atoms: O3_3  and  C1_12 
REMARK    4  A    between atoms: O4_4  and  C2_13 
REMARK    5  A    between atoms: O5_5  and  C3_14 
REMARK    6  A    between atoms: O6_6  and  C6_17 
REMARK    7  A    between atoms: O9_9  and  C9_20 
REMARK    8  A    between atoms: O10_10  and  C12_23 
REMARK    9  A    between atoms: C5_16  and  C6_17 
REMARK   10  A    between atoms: C14_25  and  C16_27 
ROOT
ATOM      1  O8  UNK     1      41.314  21.164  11.591  1.00  0.00    -0.309 OA
ATOM      2  O11 UNK     1      40.575  17.449  13.092  1.00  0.00    -0.287 OA
ATOM      3  C7  UNK     1      44.726  19.884  11.629  1.00  0.00     0.110 A 
ATOM      4  C8  UNK     1      43.631  20.731  11.453  1.00  0.00     0.078 A 
ATOM      5  C9  UNK     1      44.541  18.598  12.138  1.00  0.00     0.134 A 
ATOM      6  C10 UNK     1      42.350  20.288  11.786  1.00  0.00     0.096 A 
ATOM      7  C11 UNK     1      42.169  19.003  12.294  1.00  0.00     0.084 A 
ATOM      8  C12 UNK     1      43.262  18.152  12.472  1.00  0.00     0.118 A 
ATOM      9  C13 UNK     1      40.808  18.562  12.639  1.00  0.00     0.190 A 
ATOM     10  C14 UNK     1      40.029  20.749  11.906  1.00  0.00     0.090 A 
ATOM     11  C15 UNK     1      39.727  19.541  12.407  1.00  0.00     0.094 A 
ENDROOT
BRANCH   3  12
ATOM     12  O2  UNK     1      45.973  20.326  11.300  1.00  0.00    -0.315 OA
BRANCH  12  13
ATOM     13  C4  UNK     1      46.572  19.747  10.140  1.00  0.00     0.299 C 
ATOM     14  O1  UNK     1      47.614  18.857  10.530  1.00  0.00    -0.340 OA
ATOM     15  C5  UNK     1      48.236  18.230   9.414  1.00  0.00     0.253 C 
ATOM     16  C3  UNK     1      48.907  19.258   8.512  1.00  0.00     0.189 C 
ATOM     17  C1  UNK     1      47.912  20.337   8.085  1.00  0.00     0.183 C 
ATOM     18  C2  UNK     1      47.133  20.882   9.283  1.00  0.00     0.205 C 
BRANCH  15  19
ATOM     19  C6  UNK     1      49.248  17.330  10.045  1.00  0.00     0.172 C 
ATOM     20  O7  UNK     1      49.633  17.409  11.203  1.00  0.00    -0.648 OA
BRANCH  19  21
ATOM     21  O6  UNK     1      49.690  16.408   9.156  1.00  0.00    -0.774 OA
ATOM     22  H10 UNK     1      48.966  16.075   8.583  1.00  0.00     0.167 HD
ENDBRANCH  19  21
ENDBRANCH  15  19
BRANCH  16  23
ATOM     23  O5  UNK     1      49.401  18.594   7.350  1.00  0.00    -0.390 OA
ATOM     24  H8  UNK     1      48.847  18.856   6.594  1.00  0.00     0.210 HD
ENDBRANCH  16  23
BRANCH  17  25
ATOM     25  O3  UNK     1      48.645  21.398   7.471  1.00  0.00    -0.390 OA
ATOM     26  H6  UNK     1      48.694  22.130   8.107  1.00  0.00     0.210 HD
ENDBRANCH  17  25
BRANCH  18  27
ATOM     27  O4  UNK     1      46.040  21.674   8.817  1.00  0.00    -0.388 OA
ATOM     28  H7  UNK     1      45.319  21.590   9.463  1.00  0.00     0.210 HD
ENDBRANCH  18  27
ENDBRANCH  12  13
ENDBRANCH   3  12
BRANCH   5  29
ATOM     29  O9  UNK     1      45.617  17.776  12.308  1.00  0.00    -0.356 OA
ATOM     30  H12 UNK     1      45.419  17.155  13.032  1.00  0.00     0.218 HD
ENDBRANCH   5  29
BRANCH   8  31
ATOM     31  O10 UNK     1      43.122  16.889  12.967  1.00  0.00    -0.357 OA
ATOM     32  H13 UNK     1      43.988  16.485  13.128  1.00  0.00     0.217 HD
ENDBRANCH   8  31
BRANCH  10  33
ATOM     33  C16 UNK     1      38.991  21.771  11.662  1.00  0.00    -0.002 A 
ATOM     34  C17 UNK     1      38.027  21.569  10.671  1.00  0.00     0.014 A 
ATOM     35  C19 UNK     1      37.046  22.535  10.441  1.00  0.00     0.001 A 
ATOM     36  C21 UNK     1      37.025  23.703  11.202  1.00  0.00     0.000 A 
ATOM     37  C20 UNK     1      37.987  23.908  12.192  1.00  0.00     0.001 A 
ATOM     38  C18 UNK     1      38.967  22.943  12.421  1.00  0.00     0.014 A 
ENDBRANCH  10  33
TORSDOF 10
ENDMDL
MODEL 8
REMARK VINA RESULT:      -5.9      2.616      5.538
REMARK  10 active torsions:
REMARK  status: ('A' for Active; 'I' for Inactive)
REMARK    1  A    between atoms: O2_2  and  C4_15 
REMARK    2  A    between atoms: O2_2  and  C7_18 
REMARK    3  A    between atoms: O3_3  and  C1_12 
REMARK    4  A    between atoms: O4_4  and  C2_13 
REMARK    5  A    between atoms: O5_5  and  C3_14 
REMARK    6  A    between atoms: O6_6  and  C6_17 
REMARK    7  A    between atoms: O9_9  and  C9_20 
REMARK    8  A    between atoms: O10_10  and  C12_23 
REMARK    9  A    between atoms: C5_16  and  C6_17 
REMARK   10  A    between atoms: C14_25  and  C16_27 
ROOT
ATOM      1  O8  UNK     1      42.192  24.534  11.717  1.00  0.00    -0.309 OA
ATOM      2  O11 UNK     1      44.930  25.901  14.407  1.00  0.00    -0.287 OA
ATOM      3  C7  UNK     1      44.988  22.376  10.820  1.00  0.00     0.110 A 
ATOM      4  C8  UNK     1      43.726  22.971  10.836  1.00  0.00     0.078 A 
ATOM      5  C9  UNK     1      45.971  22.797  11.717  1.00  0.00     0.134 A 
ATOM      6  C10 UNK     1      43.449  23.988  11.751  1.00  0.00     0.096 A 
ATOM      7  C11 UNK     1      44.433  24.407  12.644  1.00  0.00     0.084 A 
ATOM      8  C12 UNK     1      45.698  23.814  12.632  1.00  0.00     0.118 A 
ATOM      9  C13 UNK     1      44.115  25.482  13.596  1.00  0.00     0.190 A 
ATOM     10  C14 UNK     1      41.886  25.542  12.620  1.00  0.00     0.090 A 
ATOM     11  C15 UNK     1      42.747  26.034  13.524  1.00  0.00     0.094 A 
ENDROOT
BRANCH   3  12
ATOM     12  O2  UNK     1      45.248  21.383   9.923  1.00  0.00    -0.315 OA
BRANCH  12  13
ATOM     13  C4  UNK     1      44.679  20.103  10.202  1.00  0.00     0.299 C 
ATOM     14  O1  UNK     1      43.303  20.253  10.543  1.00  0.00    -0.340 OA
ATOM     15  C5  UNK     1      42.673  19.005  10.812  1.00  0.00     0.253 C 
ATOM     16  C3  UNK     1      43.309  18.319  12.015  1.00  0.00     0.189 C 
ATOM     17  C1  UNK     1      44.819  18.172  11.821  1.00  0.00     0.183 C 
ATOM     18  C2  UNK     1      45.453  19.488  11.369  1.00  0.00     0.205 C 
BRANCH  15  19
ATOM     19  C6  UNK     1      41.259  19.389  11.101  1.00  0.00     0.172 C 
ATOM     20  O7  UNK     1      40.623  19.038  12.084  1.00  0.00    -0.648 OA
BRANCH  19  21
ATOM     21  O6  UNK     1      40.768  20.182  10.118  1.00  0.00    -0.774 OA
ATOM     22  H10 UNK     1      41.426  20.846   9.819  1.00  0.00     0.167 HD
ENDBRANCH  19  21
ENDBRANCH  15  19
BRANCH  16  23
ATOM     23  O5  UNK     1      42.731  17.023  12.161  1.00  0.00    -0.390 OA
ATOM     24  H8  UNK     1      41.994  16.948  11.530  1.00  0.00     0.210 HD
ENDBRANCH  16  23
BRANCH  17  25
ATOM     25  O3  UNK     1      45.389  17.772  13.068  1.00  0.00    -0.390 OA
ATOM     26  H6  UNK     1      46.355  17.812  12.978  1.00  0.00     0.210 HD
ENDBRANCH  17  25
BRANCH  18  27
ATOM     27  O4  UNK     1      46.793  19.245  10.939  1.00  0.00    -0.388 OA
ATOM     28  H7  UNK     1      47.284  20.080  11.020  1.00  0.00     0.210 HD
ENDBRANCH  18  27
ENDBRANCH  12  13
ENDBRANCH   3  12
BRANCH   5  29
ATOM     29  O9  UNK     1      47.203  22.210  11.695  1.00  0.00    -0.356 OA
ATOM     30  H12 UNK     1      47.505  22.093  12.613  1.00  0.00     0.218 HD
ENDBRANCH   5  29
BRANCH   8  31
ATOM     31  O10 UNK     1      46.684  24.197  13.491  1.00  0.00    -0.357 OA
ATOM     32  H13 UNK     1      46.318  24.401  14.365  1.00  0.00     0.217 HD
ENDBRANCH   8  31
BRANCH  10  33
ATOM     33  C16 UNK     1      40.509  26.062  12.495  1.00  0.00    -0.002 A 
ATOM     34  C17 UNK     1      40.288  27.432  12.334  1.00  0.00     0.014 A 
ATOM     35  C19 UNK     1      38.987  27.922  12.215  1.00  0.00     0.001 A 
ATOM     36  C21 UNK     1      37.904  27.045  12.256  1.00  0.00     0.000 A 
ATOM     37  C20 UNK     1      38.121  25.676  12.416  1.00  0.00     0.001 A 
ATOM     38  C18 UNK     1      39.421  25.186  12.535  1.00  0.00     0.014 A 
ENDBRANCH  10  33
TORSDOF 10
ENDMDL
MODEL 9
REMARK VINA RESULT:      -5.9      3.355      4.929
REMARK  10 active torsions:
REMARK  status: ('A' for Active; 'I' for Inactive)
REMARK    1  A    between atoms: O2_2  and  C4_15 
REMARK    2  A    between atoms: O2_2  and  C7_18 
REMARK    3  A    between atoms: O3_3  and  C1_12 
REMARK    4  A    between atoms: O4_4  and  C2_13 
REMARK    5  A    between atoms: O5_5  and  C3_14 
REMARK    6  A    between atoms: O6_6  and  C6_17 
REMARK    7  A    between atoms: O9_9  and  C9_20 
REMARK    8  A    between atoms: O10_10  and  C12_23 
REMARK    9  A    between atoms: C5_16  and  C6_17 
REMARK   10  A    between atoms: C14_25  and  C16_27 
ROOT
ATOM      1  O8  UNK     1      43.135  21.740  11.538  1.00  0.00    -0.309 OA
ATOM      2  O11 UNK     1      39.300  20.649  12.379  1.00  0.00    -0.287 OA
ATOM      3  C7  UNK     1      43.652  18.160  11.981  1.00  0.00     0.110 A 
ATOM      4  C8  UNK     1      43.892  19.512  11.737  1.00  0.00     0.078 A 
ATOM      5  C9  UNK     1      42.360  17.720  12.274  1.00  0.00     0.134 A 
ATOM      6  C10 UNK     1      42.837  20.424  11.785  1.00  0.00     0.096 A 
ATOM      7  C11 UNK     1      41.548  19.982  12.078  1.00  0.00     0.084 A 
ATOM      8  C12 UNK     1      41.303  18.629  12.323  1.00  0.00     0.118 A 
ATOM      9  C13 UNK     1      40.455  20.966  12.125  1.00  0.00     0.190 A 
ATOM     10  C14 UNK     1      42.105  22.668  11.572  1.00  0.00     0.090 A 
ATOM     11  C15 UNK     1      40.826  22.368  11.847  1.00  0.00     0.094 A 
ENDROOT
BRANCH   3  12
ATOM     12  O2  UNK     1      44.690  17.276  11.930  1.00  0.00    -0.315 OA
BRANCH  12  13
ATOM     13  C4  UNK     1      46.001  17.821  12.082  1.00  0.00     0.299 C 
ATOM     14  O1  UNK     1      46.757  17.591  10.895  1.00  0.00    -0.340 OA
ATOM     15  C5  UNK     1      48.071  18.133  10.977  1.00  0.00     0.253 C 
ATOM     16  C3  UNK     1      48.868  17.469  12.093  1.00  0.00     0.189 C 
ATOM     17  C1  UNK     1      48.122  17.564  13.424  1.00  0.00     0.183 C 
ATOM     18  C2  UNK     1      46.662  17.134  13.276  1.00  0.00     0.205 C 
BRANCH  15  19
ATOM     19  C6  UNK     1      48.657  17.818   9.640  1.00  0.00     0.172 C 
ATOM     20  O7  UNK     1      48.700  18.589   8.693  1.00  0.00    -0.648 OA
BRANCH  19  21
ATOM     21  O6  UNK     1      49.135  16.550   9.614  1.00  0.00    -0.774 OA
ATOM     22  H10 UNK     1      49.189  16.197   8.700  1.00  0.00     0.167 HD
ENDBRANCH  19  21
ENDBRANCH  15  19
BRANCH  16  23
ATOM     23  O5  UNK     1      50.125  18.134  12.215  1.00  0.00    -0.390 OA
ATOM     24  H8  UNK     1      50.109  18.661  13.032  1.00  0.00     0.210 HD
ENDBRANCH  16  23
BRANCH  17  25
ATOM     25  O3  UNK     1      48.778  16.709  14.361  1.00  0.00    -0.390 OA
ATOM     26  H6  UNK     1      48.363  15.833  14.304  1.00  0.00     0.210 HD
ENDBRANCH  17  25
BRANCH  18  27
ATOM     27  O4  UNK     1      45.941  17.493  14.455  1.00  0.00    -0.388 OA
ATOM     28  H7  UNK     1      45.496  18.339  14.282  1.00  0.00     0.210 HD
ENDBRANCH  18  27
ENDBRANCH  12  13
ENDBRANCH   3  12
BRANCH   5  29
ATOM     29  O9  UNK     1      42.133  16.395  12.512  1.00  0.00    -0.356 OA
ATOM     30  H12 UNK     1      42.947  16.004  12.875  1.00  0.00     0.218 HD
ENDBRANCH   5  29
BRANCH   8  31
ATOM     31  O10 UNK     1      40.056  18.161  12.613  1.00  0.00    -0.357 OA
ATOM     32  H13 UNK     1      39.401  18.523  11.996  1.00  0.00     0.217 HD
ENDBRANCH   8  31
BRANCH  10  33
ATOM     33  C16 UNK     1      42.536  24.053  11.295  1.00  0.00    -0.002 A 
ATOM     34  C17 UNK     1      43.351  24.327  10.194  1.00  0.00     0.014 A 
ATOM     35  C19 UNK     1      43.758  25.636   9.933  1.00  0.00     0.001 A 
ATOM     36  C21 UNK     1      43.350  26.674  10.770  1.00  0.00     0.000 A 
ATOM     37  C20 UNK     1      42.536  26.404  11.870  1.00  0.00     0.001 A 
ATOM     38  C18 UNK     1      42.130  25.095  12.132  1.00  0.00     0.014 A 
ENDBRANCH  10  33
TORSDOF 10
ENDMDL
MODEL 10
REMARK VINA RESULT:      -5.9      3.306      9.095
REMARK  10 active torsions:
REMARK  status: ('A' for Active; 'I' for Inactive)
REMARK    1  A    between atoms: O2_2  and  C4_15 
REMARK    2  A    between atoms: O2_2  and  C7_18 
REMARK    3  A    between atoms: O3_3  and  C1_12 
REMARK    4  A    between atoms: O4_4  and  C2_13 
REMARK    5  A    between atoms: O5_5  and  C3_14 
REMARK    6  A    between atoms: O6_6  and  C6_17 
REMARK    7  A    between atoms: O9_9  and  C9_20 
REMARK    8  A    between atoms: O10_10  and  C12_23 
REMARK    9  A    between atoms: C5_16  and  C6_17 
REMARK   10  A    between atoms: C14_25  and  C16_27 
ROOT
ATOM      1  O8  UNK     1      41.019  22.547  11.772  1.00  0.00    -0.309 OA
ATOM      2  O11 UNK     1      42.069  26.325  12.878  1.00  0.00    -0.287 OA
ATOM      3  C7  UNK     1      37.777  23.705  12.967  1.00  0.00     0.110 A 
ATOM      4  C8  UNK     1      38.780  22.894  12.435  1.00  0.00     0.078 A 
ATOM      5  C9  UNK     1      38.070  25.011  13.364  1.00  0.00     0.134 A 
ATOM      6  C10 UNK     1      40.077  23.391  12.300  1.00  0.00     0.096 A 
ATOM      7  C11 UNK     1      40.367  24.695  12.699  1.00  0.00     0.084 A 
ATOM      8  C12 UNK     1      39.366  25.511  13.232  1.00  0.00     0.118 A 
ATOM      9  C13 UNK     1      41.743  25.193  12.548  1.00  0.00     0.190 A 
ATOM     10  C14 UNK     1      42.315  23.016  11.620  1.00  0.00     0.090 A 
ATOM     11  C15 UNK     1      42.719  24.247  11.970  1.00  0.00     0.094 A 
ENDROOT
BRANCH   3  12
ATOM     12  O2  UNK     1      36.513  23.210  13.093  1.00  0.00    -0.315 OA
BRANCH  12  13
ATOM     13  C4  UNK     1      35.581  23.567  12.072  1.00  0.00     0.299 C 
ATOM     14  O1  UNK     1      35.987  24.787  11.456  1.00  0.00    -0.340 OA
ATOM     15  C5  UNK     1      35.106  25.184  10.410  1.00  0.00     0.253 C 
ATOM     16  C3  UNK     1      33.706  25.455  10.947  1.00  0.00     0.189 C 
ATOM     17  C1  UNK     1      33.177  24.245  11.717  1.00  0.00     0.183 C 
ATOM     18  C2  UNK     1      34.207  23.730  12.722  1.00  0.00     0.205 C 
BRANCH  15  19
ATOM     19  C6  UNK     1      35.732  26.437   9.891  1.00  0.00     0.172 C 
ATOM     20  O7  UNK     1      36.715  26.982  10.373  1.00  0.00    -0.648 OA
BRANCH  19  21
ATOM     21  O6  UNK     1      35.059  26.896   8.809  1.00  0.00    -0.774 OA
ATOM     22  H10 UNK     1      35.590  26.821   7.987  1.00  0.00     0.167 HD
ENDBRANCH  19  21
ENDBRANCH  15  19
BRANCH  16  23
ATOM     23  O5  UNK     1      32.838  25.723   9.847  1.00  0.00    -0.390 OA
ATOM     24  H8  UNK     1      32.723  26.686   9.781  1.00  0.00     0.210 HD
ENDBRANCH  16  23
BRANCH  17  25
ATOM     25  O3  UNK     1      31.994  24.645  12.411  1.00  0.00    -0.390 OA
ATOM     26  H6  UNK     1      31.269  24.069  12.116  1.00  0.00     0.210 HD
ENDBRANCH  17  25
BRANCH  18  27
ATOM     27  O4  UNK     1      33.792  22.456  13.216  1.00  0.00    -0.388 OA
ATOM     28  H7  UNK     1      32.880  22.306  12.915  1.00  0.00     0.210 HD
ENDBRANCH  18  27
ENDBRANCH  12  13
ENDBRANCH   3  12
BRANCH   5  29
ATOM     29  O9  UNK     1      37.084  25.798  13.884  1.00  0.00    -0.356 OA
ATOM     30  H12 UNK     1      36.501  25.241  14.430  1.00  0.00     0.218 HD
ENDBRANCH   5  29
BRANCH   8  31
ATOM     31  O10 UNK     1      39.613  26.790  13.631  1.00  0.00    -0.357 OA
ATOM     32  H13 UNK     1      38.800  27.216  13.942  1.00  0.00     0.217 HD
ENDBRANCH   8  31
BRANCH  10  33
ATOM     33  C16 UNK     1      43.249  22.025  11.047  1.00  0.00    -0.002 A 
ATOM     34  C17 UNK     1      44.510  22.427  10.598  1.00  0.00     0.014 A 
ATOM     35  C19 UNK     1      45.392  21.491  10.057  1.00  0.00     0.001 A 
ATOM     36  C21 UNK     1      45.017  20.151   9.965  1.00  0.00     0.000 A 
ATOM     37  C20 UNK     1      43.759  19.746  10.412  1.00  0.00     0.001 A 
ATOM     38  C18 UNK     1      42.877  20.682  10.952  1.00  0.00     0.014 A 
ENDBRANCH  10  33
TORSDOF 10
ENDMDL
MODEL 11
REMARK VINA RESULT:      -5.9      3.414      7.491
REMARK  10 active torsions:
REMARK  status: ('A' for Active; 'I' for Inactive)
REMARK    1  A    between atoms: O2_2  and  C4_15 
REMARK    2  A    between atoms: O2_2  and  C7_18 
REMARK    3  A    between atoms: O3_3  and  C1_12 
REMARK    4  A    between atoms: O4_4  and  C2_13 
REMARK    5  A    between atoms: O5_5  and  C3_14 
REMARK    6  A    between atoms: O6_6  and  C6_17 
REMARK    7  A    between atoms: O9_9  and  C9_20 
REMARK    8  A    between atoms: O10_10  and  C12_23 
REMARK    9  A    between atoms: C5_16  and  C6_17 
REMARK   10  A    between atoms: C14_25  and  C16_27 
ROOT
ATOM      1  O8  UNK     1      41.942  18.473  13.777  1.00  0.00    -0.309 OA
ATOM      2  O11 UNK     1      38.015  18.902  14.778  1.00  0.00    -0.287 OA
ATOM      3  C7  UNK     1      41.163  21.405  11.758  1.00  0.00     0.110 A 
ATOM      4  C8  UNK     1      41.860  20.348  12.344  1.00  0.00     0.078 A 
ATOM      5  C9  UNK     1      39.815  21.608  12.059  1.00  0.00     0.134 A 
ATOM      6  C10 UNK     1      41.205  19.494  13.233  1.00  0.00     0.096 A 
ATOM      7  C11 UNK     1      39.860  19.699  13.532  1.00  0.00     0.084 A 
ATOM      8  C12 UNK     1      39.159  20.757  12.948  1.00  0.00     0.118 A 
ATOM      9  C13 UNK     1      39.194  18.783  14.472  1.00  0.00     0.190 A 
ATOM     10  C14 UNK     1      41.320  17.613  14.670  1.00  0.00     0.090 A 
ATOM     11  C15 UNK     1      40.031  17.703  15.033  1.00  0.00     0.094 A 
ENDROOT
BRANCH   3  12
ATOM     12  O2  UNK     1      41.812  22.233  10.890  1.00  0.00    -0.315 OA
BRANCH  12  13
ATOM     13  C4  UNK     1      42.381  23.420  11.444  1.00  0.00     0.299 C 
ATOM     14  O1  UNK     1      41.342  24.295  11.877  1.00  0.00    -0.340 OA
ATOM     15  C5  UNK     1      41.849  25.490  12.461  1.00  0.00     0.253 C 
ATOM     16  C3  UNK     1      42.653  26.296  11.447  1.00  0.00     0.189 C 
ATOM     17  C1  UNK     1      43.760  25.442  10.831  1.00  0.00     0.183 C 
ATOM     18  C2  UNK     1      43.224  24.090  10.359  1.00  0.00     0.205 C 
BRANCH  15  19
ATOM     19  C6  UNK     1      40.613  26.224  12.869  1.00  0.00     0.172 C 
ATOM     20  O7  UNK     1      40.595  27.284  13.478  1.00  0.00    -0.648 OA
BRANCH  19  21
ATOM     21  O6  UNK     1      39.505  25.551  12.475  1.00  0.00    -0.774 OA
ATOM     22  H10 UNK     1      38.827  25.515  13.183  1.00  0.00     0.167 HD
ENDBRANCH  19  21
ENDBRANCH  15  19
BRANCH  16  23
ATOM     23  O5  UNK     1      43.241  27.412  12.114  1.00  0.00    -0.390 OA
ATOM     24  H8  UNK     1      44.204  27.370  11.981  1.00  0.00     0.210 HD
ENDBRANCH  16  23
BRANCH  17  25
ATOM     25  O3  UNK     1      44.301  26.155   9.717  1.00  0.00    -0.390 OA
ATOM     26  H6  UNK     1      44.230  25.582   8.936  1.00  0.00     0.210 HD
ENDBRANCH  17  25
BRANCH  18  27
ATOM     27  O4  UNK     1      44.319  23.229  10.047  1.00  0.00    -0.388 OA
ATOM     28  H7  UNK     1      45.131  23.762  10.075  1.00  0.00     0.210 HD
ENDBRANCH  18  27
ENDBRANCH  12  13
ENDBRANCH   3  12
BRANCH   5  29
ATOM     29  O9  UNK     1      39.141  22.645  11.481  1.00  0.00    -0.356 OA
ATOM     30  H12 UNK     1      39.654  22.956  10.714  1.00  0.00     0.218 HD
ENDBRANCH   5  29
BRANCH   8  31
ATOM     31  O10 UNK     1      37.843  20.988  13.217  1.00  0.00    -0.357 OA
ATOM     32  H13 UNK     1      37.566  20.510  14.013  1.00  0.00     0.217 HD
ENDBRANCH   8  31
BRANCH  10  33
ATOM     33  C16 UNK     1      42.202  16.549  15.191  1.00  0.00    -0.002 A 
ATOM     34  C17 UNK     1      43.568  16.789  15.357  1.00  0.00     0.014 A 
ATOM     35  C19 UNK     1      44.400  15.783  15.851  1.00  0.00     0.001 A 
ATOM     36  C21 UNK     1      43.870  14.536  16.179  1.00  0.00     0.000 A 
ATOM     37  C20 UNK     1      42.506  14.293  16.014  1.00  0.00     0.001 A 
ATOM     38  C18 UNK     1      41.674  15.298  15.521  1.00  0.00     0.014 A 
ENDBRANCH  10  33
TORSDOF 10
ENDMDL
MODEL 12
REMARK VINA RESULT:      -5.9      3.332      8.529
REMARK  10 active torsions:
REMARK  status: ('A' for Active; 'I' for Inactive)
REMARK    1  A    between atoms: O2_2  and  C4_15 
REMARK    2  A    between atoms: O2_2  and  C7_18 
REMARK    3  A    between atoms: O3_3  and  C1_12 
REMARK    4  A    between atoms: O4_4  and  C2_13 
REMARK    5  A    between atoms: O5_5  and  C3_14 
REMARK    6  A    between atoms: O6_6  and  C6_17 
REMARK    7  A    between atoms: O9_9  and  C9_20 
REMARK    8  A    between atoms: O10_10  and  C12_23 
REMARK    9  A    between atoms: C5_16  and  C6_17 
REMARK   10  A    between atoms: C14_25  and  C16_27 
ROOT
ATOM      1  O8  UNK     1      44.847  19.399  11.144  1.00  0.00    -0.309 OA
ATOM      2  O11 UNK     1      42.177  16.749  12.711  1.00  0.00    -0.287 OA
ATOM      3  C7  UNK     1      41.865  21.492  11.067  1.00  0.00     0.110 A 
ATOM      4  C8  UNK     1      43.183  21.060  10.922  1.00  0.00     0.078 A 
ATOM      5  C9  UNK     1      40.901  20.634  11.598  1.00  0.00     0.134 A 
ATOM      6  C10 UNK     1      43.536  19.766  11.311  1.00  0.00     0.096 A 
ATOM      7  C11 UNK     1      42.572  18.912  11.841  1.00  0.00     0.084 A 
ATOM      8  C12 UNK     1      41.250  19.341  11.988  1.00  0.00     0.118 A 
ATOM      9  C13 UNK     1      42.971  17.554  12.241  1.00  0.00     0.190 A 
ATOM     10  C14 UNK     1      45.228  18.122  11.529  1.00  0.00     0.090 A 
ATOM     11  C15 UNK     1      44.393  17.207  12.045  1.00  0.00     0.094 A 
ENDROOT
BRANCH   3  12
ATOM     12  O2  UNK     1      41.530  22.757  10.684  1.00  0.00    -0.315 OA
BRANCH  12  13
ATOM     13  C4  UNK     1      42.097  23.826  11.444  1.00  0.00     0.299 C 
ATOM     14  O1  UNK     1      41.077  24.467  12.206  1.00  0.00    -0.340 OA
ATOM     15  C5  UNK     1      41.586  25.530  13.004  1.00  0.00     0.253 C 
ATOM     16  C3  UNK     1      42.185  26.630  12.134  1.00  0.00     0.189 C 
ATOM     17  C1  UNK     1      43.244  26.059  11.192  1.00  0.00     0.183 C 
ATOM     18  C2  UNK     1      42.733  24.814  10.466  1.00  0.00     0.205 C 
BRANCH  15  19
ATOM     19  C6  UNK     1      40.378  26.023  13.732  1.00  0.00     0.172 C 
ATOM     20  O7  UNK     1      40.392  26.825  14.653  1.00  0.00    -0.648 OA
BRANCH  19  21
ATOM     21  O6  UNK     1      39.254  25.453  13.232  1.00  0.00    -0.774 OA
ATOM     22  H10 UNK     1      39.168  25.597  12.266  1.00  0.00     0.167 HD
ENDBRANCH  19  21
ENDBRANCH  15  19
BRANCH  16  23
ATOM     23  O5  UNK     1      42.791  27.604  12.982  1.00  0.00    -0.390 OA
ATOM     24  H8  UNK     1      42.882  27.217  13.869  1.00  0.00     0.210 HD
ENDBRANCH  16  23
BRANCH  17  25
ATOM     25  O3  UNK     1      43.574  27.067  10.235  1.00  0.00    -0.390 OA
ATOM     26  H6  UNK     1      43.654  27.910  10.709  1.00  0.00     0.210 HD
ENDBRANCH  17  25
BRANCH  18  27
ATOM     27  O4  UNK     1      43.824  24.162   9.816  1.00  0.00    -0.388 OA
ATOM     28  H7  UNK     1      44.366  23.741  10.504  1.00  0.00     0.210 HD
ENDBRANCH  18  27
ENDBRANCH  12  13
ENDBRANCH   3  12
BRANCH   5  29
ATOM     29  O9  UNK     1      39.613  21.064  11.736  1.00  0.00    -0.356 OA
ATOM     30  H12 UNK     1      39.303  20.827  12.627  1.00  0.00     0.218 HD
ENDBRANCH   5  29
BRANCH   8  31
ATOM     31  O10 UNK     1      40.281  18.532  12.502  1.00  0.00    -0.357 OA
ATOM     32  H13 UNK     1      40.302  18.544  13.471  1.00  0.00     0.217 HD
ENDBRANCH   8  31
BRANCH  10  33
ATOM     33  C16 UNK     1      46.658  17.829  11.302  1.00  0.00    -0.002 A 
ATOM     34  C17 UNK     1      47.154  16.542  11.525  1.00  0.00     0.014 A 
ATOM     35  C19 UNK     1      48.505  16.265  11.309  1.00  0.00     0.001 A 
ATOM     36  C21 UNK     1      49.363  17.273  10.870  1.00  0.00     0.000 A 
ATOM     37  C20 UNK     1      48.870  18.560  10.647  1.00  0.00     0.001 A 
ATOM     38  C18 UNK     1      47.520  18.836  10.862  1.00  0.00     0.014 A 
ENDBRANCH  10  33
TORSDOF 10
ENDMDL
MODEL 13
REMARK VINA RESULT:      -5.8      3.991      9.856
REMARK  10 active torsions:
REMARK  status: ('A' for Active; 'I' for Inactive)
REMARK    1  A    between atoms: O2_2  and  C4_15 
REMARK    2  A    between atoms: O2_2  and  C7_18 
REMARK    3  A    between atoms: O3_3  and  C1_12 
REMARK    4  A    between atoms: O4_4  and  C2_13 
REMARK    5  A    between atoms: O5_5  and  C3_14 
REMARK    6  A    between atoms: O6_6  and  C6_17 
REMARK    7  A    between atoms: O9_9  and  C9_20 
REMARK    8  A    between atoms: O10_10  and  C12_23 
REMARK    9  A    between atoms: C5_16  and  C6_17 
REMARK   10  A    between atoms: C14_25  and  C16_27 
ROOT
ATOM      1  O8  UNK     1      41.515  23.452  11.794  1.00  0.00    -0.309 OA
ATOM      2  O11 UNK     1      43.441  27.035  12.019  1.00  0.00    -0.287 OA
ATOM      3  C7  UNK     1      38.759  25.496  13.023  1.00  0.00     0.110 A 
ATOM      4  C8  UNK     1      39.498  24.401  12.575  1.00  0.00     0.078 A 
ATOM      5  C9  UNK     1      39.359  26.752  13.122  1.00  0.00     0.134 A 
ATOM      6  C10 UNK     1      40.840  24.564  12.226  1.00  0.00     0.096 A 
ATOM      7  C11 UNK     1      41.436  25.820  12.327  1.00  0.00     0.084 A 
ATOM      8  C12 UNK     1      40.700  26.919  12.774  1.00  0.00     0.118 A 
ATOM      9  C13 UNK     1      42.852  25.964  11.954  1.00  0.00     0.190 A 
ATOM     10  C14 UNK     1      42.847  23.586  11.434  1.00  0.00     0.090 A 
ATOM     11  C15 UNK     1      43.533  24.738  11.491  1.00  0.00     0.094 A 
ENDROOT
BRANCH   3  12
ATOM     12  O2  UNK     1      37.449  25.325  13.361  1.00  0.00    -0.315 OA
BRANCH  12  13
ATOM     13  C4  UNK     1      36.481  25.859  12.457  1.00  0.00     0.299 C 
ATOM     14  O1  UNK     1      35.773  26.925  13.085  1.00  0.00    -0.340 OA
ATOM     15  C5  UNK     1      34.806  27.515  12.223  1.00  0.00     0.253 C 
ATOM     16  C3  UNK     1      33.736  26.504  11.829  1.00  0.00     0.189 C 
ATOM     17  C1  UNK     1      34.369  25.255  11.215  1.00  0.00     0.183 C 
ATOM     18  C2  UNK     1      35.519  24.733  12.076  1.00  0.00     0.205 C 
BRANCH  15  19
ATOM     19  C6  UNK     1      34.225  28.611  13.056  1.00  0.00     0.172 C 
ATOM     20  O7  UNK     1      34.474  28.801  14.237  1.00  0.00    -0.648 OA
BRANCH  19  21
ATOM     21  O6  UNK     1      33.376  29.371  12.323  1.00  0.00    -0.774 OA
ATOM     22  H10 UNK     1      32.793  28.825  11.754  1.00  0.00     0.167 HD
ENDBRANCH  19  21
ENDBRANCH  15  19
BRANCH  16  23
ATOM     23  O5  UNK     1      32.869  27.106  10.869  1.00  0.00    -0.390 OA
ATOM     24  H8  UNK     1      32.238  27.672  11.345  1.00  0.00     0.210 HD
ENDBRANCH  16  23
BRANCH  17  25
ATOM     25  O3  UNK     1      33.358  24.251  11.112  1.00  0.00    -0.390 OA
ATOM     26  H6  UNK     1      32.551  24.601  11.525  1.00  0.00     0.210 HD
ENDBRANCH  17  25
BRANCH  18  27
ATOM     27  O4  UNK     1      36.250  23.749  11.344  1.00  0.00    -0.388 OA
ATOM     28  H7  UNK     1      36.405  22.995  11.938  1.00  0.00     0.210 HD
ENDBRANCH  18  27
ENDBRANCH  12  13
ENDBRANCH   3  12
BRANCH   5  29
ATOM     29  O9  UNK     1      38.629  27.819  13.561  1.00  0.00    -0.356 OA
ATOM     30  H12 UNK     1      39.146  28.287  14.239  1.00  0.00     0.218 HD
ENDBRANCH   5  29
BRANCH   8  31
ATOM     31  O10 UNK     1      41.250  28.161  12.884  1.00  0.00    -0.357 OA
ATOM     32  H13 UNK     1      41.832  28.347  12.132  1.00  0.00     0.217 HD
ENDBRANCH   8  31
BRANCH  10  33
ATOM     33  C16 UNK     1      43.478  22.326  10.988  1.00  0.00    -0.002 A 
ATOM     34  C17 UNK     1      42.774  21.122  11.072  1.00  0.00     0.014 A 
ATOM     35  C19 UNK     1      43.370  19.933  10.650  1.00  0.00     0.001 A 
ATOM     36  C21 UNK     1      44.669  19.944  10.143  1.00  0.00     0.000 A 
ATOM     37  C20 UNK     1      45.374  21.145  10.059  1.00  0.00     0.001 A 
ATOM     38  C18 UNK     1      44.778  22.334  10.481  1.00  0.00     0.014 A 
ENDBRANCH  10  33
TORSDOF 10
ENDMDL
MODEL 14
REMARK VINA RESULT:      -5.8      3.101      8.989
REMARK  10 active torsions:
REMARK  status: ('A' for Active; 'I' for Inactive)
REMARK    1  A    between atoms: O2_2  and  C4_15 
REMARK    2  A    between atoms: O2_2  and  C7_18 
REMARK    3  A    between atoms: O3_3  and  C1_12 
REMARK    4  A    between atoms: O4_4  and  C2_13 
REMARK    5  A    between atoms: O5_5  and  C3_14 
REMARK    6  A    between atoms: O6_6  and  C6_17 
REMARK    7  A    between atoms: O9_9  and  C9_20 
REMARK    8  A    between atoms: O10_10  and  C12_23 
REMARK    9  A    between atoms: C5_16  and  C6_17 
REMARK   10  A    between atoms: C14_25  and  C16_27 
ROOT
ATOM      1  O8  UNK     1      41.510  22.872  12.131  1.00  0.00    -0.309 OA
ATOM      2  O11 UNK     1      44.439  25.423  10.902  1.00  0.00    -0.287 OA
ATOM      3  C7  UNK     1      39.833  26.032  12.825  1.00  0.00     0.110 A 
ATOM      4  C8  UNK     1      40.091  24.665  12.721  1.00  0.00     0.078 A 
ATOM      5  C9  UNK     1      40.794  26.959  12.421  1.00  0.00     0.134 A 
ATOM      6  C10 UNK     1      41.313  24.227  12.209  1.00  0.00     0.096 A 
ATOM      7  C11 UNK     1      42.271  25.155  11.806  1.00  0.00     0.084 A 
ATOM      8  C12 UNK     1      42.017  26.524  11.909  1.00  0.00     0.118 A 
ATOM      9  C13 UNK     1      43.552  24.665  11.272  1.00  0.00     0.190 A 
ATOM     10  C14 UNK     1      42.712  22.407  11.620  1.00  0.00     0.090 A 
ATOM     11  C15 UNK     1      43.713  23.199  11.205  1.00  0.00     0.094 A 
ENDROOT
BRANCH   3  12
ATOM     12  O2  UNK     1      38.635  26.449  13.326  1.00  0.00    -0.315 OA
BRANCH  12  13
ATOM     13  C4  UNK     1      37.465  25.841  12.777  1.00  0.00     0.299 C 
ATOM     14  O1  UNK     1      37.797  24.567  12.230  1.00  0.00    -0.340 OA
ATOM     15  C5  UNK     1      36.664  23.900  11.686  1.00  0.00     0.253 C 
ATOM     16  C3  UNK     1      36.069  24.689  10.525  1.00  0.00     0.189 C 
ATOM     17  C1  UNK     1      35.744  26.120  10.953  1.00  0.00     0.183 C 
ATOM     18  C2  UNK     1      36.922  26.764  11.686  1.00  0.00     0.205 C 
BRANCH  15  19
ATOM     19  C6  UNK     1      37.225  22.597  11.216  1.00  0.00     0.172 C 
ATOM     20  O7  UNK     1      37.293  22.243  10.048  1.00  0.00    -0.648 OA
BRANCH  19  21
ATOM     21  O6  UNK     1      37.649  21.852  12.266  1.00  0.00    -0.774 OA
ATOM     22  H10 UNK     1      37.969  20.969  11.983  1.00  0.00     0.167 HD
ENDBRANCH  19  21
ENDBRANCH  15  19
BRANCH  16  23
ATOM     23  O5  UNK     1      34.868  24.045  10.103  1.00  0.00    -0.390 OA
ATOM     24  H8  UNK     1      34.348  24.685   9.587  1.00  0.00     0.210 HD
ENDBRANCH  16  23
BRANCH  17  25
ATOM     25  O3  UNK     1      35.444  26.875   9.778  1.00  0.00    -0.390 OA
ATOM     26  H6  UNK     1      34.478  26.941   9.707  1.00  0.00     0.210 HD
ENDBRANCH  17  25
BRANCH  18  27
ATOM     27  O4  UNK     1      36.490  27.978  12.300  1.00  0.00    -0.388 OA
ATOM     28  H7  UNK     1      36.188  28.574  11.595  1.00  0.00     0.210 HD
ENDBRANCH  18  27
ENDBRANCH  12  13
ENDBRANCH   3  12
BRANCH   5  29
ATOM     29  O9  UNK     1      40.534  28.295  12.527  1.00  0.00    -0.356 OA
ATOM     30  H12 UNK     1      40.412  28.511  13.468  1.00  0.00     0.218 HD
ENDBRANCH   5  29
BRANCH   8  31
ATOM     31  O10 UNK     1      42.930  27.460  11.525  1.00  0.00    -0.357 OA
ATOM     32  H13 UNK     1      43.682  27.043  11.076  1.00  0.00     0.217 HD
ENDBRANCH   8  31
BRANCH  10  33
ATOM     33  C16 UNK     1      42.820  20.934  11.584  1.00  0.00    -0.002 A 
ATOM     34  C17 UNK     1      41.669  20.149  11.490  1.00  0.00     0.014 A 
ATOM     35  C19 UNK     1      41.771  18.758  11.455  1.00  0.00     0.001 A 
ATOM     36  C21 UNK     1      43.024  18.148  11.515  1.00  0.00     0.000 A 
ATOM     37  C20 UNK     1      44.176  18.930  11.609  1.00  0.00     0.001 A 
ATOM     38  C18 UNK     1      44.073  20.321  11.644  1.00  0.00     0.014 A 
ENDBRANCH  10  33
TORSDOF 10
ENDMDL
MODEL 15
REMARK VINA RESULT:      -5.8      2.982      5.270
REMARK  10 active torsions:
REMARK  status: ('A' for Active; 'I' for Inactive)
REMARK    1  A    between atoms: O2_2  and  C4_15 
REMARK    2  A    between atoms: O2_2  and  C7_18 
REMARK    3  A    between atoms: O3_3  and  C1_12 
REMARK    4  A    between atoms: O4_4  and  C2_13 
REMARK    5  A    between atoms: O5_5  and  C3_14 
REMARK    6  A    between atoms: O6_6  and  C6_17 
REMARK    7  A    between atoms: O9_9  and  C9_20 
REMARK    8  A    between atoms: O10_10  and  C12_23 
REMARK    9  A    between atoms: C5_16  and  C6_17 
REMARK   10  A    between atoms: C14_25  and  C16_27 
ROOT
ATOM      1  O8  UNK     1      40.311  24.703  12.295  1.00  0.00    -0.309 OA
ATOM      2  O11 UNK     1      43.887  26.487  11.502  1.00  0.00    -0.287 OA
ATOM      3  C7  UNK     1      42.163  21.776  11.161  1.00  0.00     0.110 A 
ATOM      4  C8  UNK     1      41.135  22.589  11.638  1.00  0.00     0.078 A 
ATOM      5  C9  UNK     1      43.413  22.324  10.871  1.00  0.00     0.134 A 
ATOM      6  C10 UNK     1      41.360  23.954  11.825  1.00  0.00     0.096 A 
ATOM      7  C11 UNK     1      42.609  24.499  11.534  1.00  0.00     0.084 A 
ATOM      8  C12 UNK     1      43.641  23.688  11.057  1.00  0.00     0.118 A 
ATOM      9  C13 UNK     1      42.818  25.941  11.739  1.00  0.00     0.190 A 
ATOM     10  C14 UNK     1      40.508  26.060  12.497  1.00  0.00     0.090 A 
ATOM     11  C15 UNK     1      41.660  26.702  12.250  1.00  0.00     0.094 A 
ENDROOT
BRANCH   3  12
ATOM     12  O2  UNK     1      41.933  20.443  10.982  1.00  0.00    -0.315 OA
BRANCH  12  13
ATOM     13  C4  UNK     1      42.116  19.604  12.123  1.00  0.00     0.299 C 
ATOM     14  O1  UNK     1      43.406  19.000  12.074  1.00  0.00    -0.340 OA
ATOM     15  C5  UNK     1      43.657  18.167  13.200  1.00  0.00     0.253 C 
ATOM     16  C3  UNK     1      42.675  17.003  13.249  1.00  0.00     0.189 C 
ATOM     17  C1  UNK     1      41.233  17.509  13.217  1.00  0.00     0.183 C 
ATOM     18  C2  UNK     1      41.026  18.532  12.100  1.00  0.00     0.205 C 
BRANCH  15  19
ATOM     19  C6  UNK     1      45.050  17.682  12.964  1.00  0.00     0.172 C 
ATOM     20  O7  UNK     1      45.601  17.631  11.875  1.00  0.00    -0.648 OA
BRANCH  19  21
ATOM     21  O6  UNK     1      45.627  17.299  14.130  1.00  0.00    -0.774 OA
ATOM     22  H10 UNK     1      46.607  17.312  14.076  1.00  0.00     0.167 HD
ENDBRANCH  19  21
ENDBRANCH  15  19
BRANCH  16  23
ATOM     23  O5  UNK     1      42.887  16.276  14.458  1.00  0.00    -0.390 OA
ATOM     24  H8  UNK     1      43.799  15.938  14.451  1.00  0.00     0.210 HD
ENDBRANCH  16  23
BRANCH  17  25
ATOM     25  O3  UNK     1      40.375  16.387  13.000  1.00  0.00    -0.390 OA
ATOM     26  H6  UNK     1      39.486  16.728  12.806  1.00  0.00     0.210 HD
ENDBRANCH  17  25
BRANCH  18  27
ATOM     27  O4  UNK     1      39.763  19.175  12.275  1.00  0.00    -0.388 OA
ATOM     28  H7  UNK     1      39.933  20.114  12.458  1.00  0.00     0.210 HD
ENDBRANCH  18  27
ENDBRANCH  12  13
ENDBRANCH   3  12
BRANCH   5  29
ATOM     29  O9  UNK     1      44.414  21.521  10.405  1.00  0.00    -0.356 OA
ATOM     30  H12 UNK     1      45.191  22.076  10.218  1.00  0.00     0.218 HD
ENDBRANCH   5  29
BRANCH   8  31
ATOM     31  O10 UNK     1      44.875  24.187  10.763  1.00  0.00    -0.357 OA
ATOM     32  H13 UNK     1      45.553  23.779  11.322  1.00  0.00     0.217 HD
ENDBRANCH   8  31
BRANCH  10  33
ATOM     33  C16 UNK     1      39.315  26.771  13.000  1.00  0.00    -0.002 A 
ATOM     34  C17 UNK     1      38.755  26.417  14.231  1.00  0.00     0.014 A 
ATOM     35  C19 UNK     1      37.628  27.089  14.706  1.00  0.00     0.001 A 
ATOM     36  C21 UNK     1      37.059  28.117  13.954  1.00  0.00     0.000 A 
ATOM     37  C20 UNK     1      37.616  28.472  12.725  1.00  0.00     0.001 A 
ATOM     38  C18 UNK     1      38.742  27.800  12.250  1.00  0.00     0.014 A 
ENDBRANCH  10  33
TORSDOF 10
ENDMDL
MODEL 16
REMARK VINA RESULT:      -5.8      1.504      2.968
REMARK  10 active torsions:
REMARK  status: ('A' for Active; 'I' for Inactive)
REMARK    1  A    between atoms: O2_2  and  C4_15 
REMARK    2  A    between atoms: O2_2  and  C7_18 
REMARK    3  A    between atoms: O3_3  and  C1_12 
REMARK    4  A    between atoms: O4_4  and  C2_13 
REMARK    5  A    between atoms: O5_5  and  C3_14 
REMARK    6  A    between atoms: O6_6  and  C6_17 
REMARK    7  A    between atoms: O9_9  and  C9_20 
REMARK    8  A    between atoms: O10_10  and  C12_23 
REMARK    9  A    between atoms: C5_16  and  C6_17 
REMARK   10  A    between atoms: C14_25  and  C16_27 
ROOT
ATOM      1  O8  UNK     1      39.150  23.292  11.792  1.00  0.00    -0.309 OA
ATOM      2  O11 UNK     1      37.610  19.932  13.508  1.00  0.00    -0.287 OA
ATOM      3  C7  UNK     1      42.270  21.638  12.692  1.00  0.00     0.110 A 
ATOM      4  C8  UNK     1      41.364  22.575  12.195  1.00  0.00     0.078 A 
ATOM      5  C9  UNK     1      41.808  20.465  13.290  1.00  0.00     0.134 A 
ATOM      6  C10 UNK     1      39.992  22.335  12.297  1.00  0.00     0.096 A 
ATOM      7  C11 UNK     1      39.534  21.163  12.896  1.00  0.00     0.084 A 
ATOM      8  C12 UNK     1      40.439  20.223  13.395  1.00  0.00     0.118 A 
ATOM      9  C13 UNK     1      38.084  20.937  12.993  1.00  0.00     0.190 A 
ATOM     10  C14 UNK     1      37.782  23.077  11.874  1.00  0.00     0.090 A 
ATOM     11  C15 UNK     1      37.219  21.994  12.431  1.00  0.00     0.094 A 
ENDROOT
BRANCH   3  12
ATOM     12  O2  UNK     1      43.608  21.882  12.586  1.00  0.00    -0.315 OA
BRANCH  12  13
ATOM     13  C4  UNK     1      44.297  21.219  11.525  1.00  0.00     0.299 C 
ATOM     14  O1  UNK     1      44.844  19.991  11.999  1.00  0.00    -0.340 OA
ATOM     15  C5  UNK     1      45.526  19.272  10.977  1.00  0.00     0.253 C 
ATOM     16  C3  UNK     1      46.718  20.063  10.453  1.00  0.00     0.189 C 
ATOM     17  C1  UNK     1      46.284  21.453   9.987  1.00  0.00     0.183 C 
ATOM     18  C2  UNK     1      45.411  22.144  11.034  1.00  0.00     0.205 C 
BRANCH  15  19
ATOM     19  C6  UNK     1      45.973  18.028  11.674  1.00  0.00     0.172 C 
ATOM     20  O7  UNK     1      46.929  17.343  11.341  1.00  0.00    -0.648 OA
BRANCH  19  21
ATOM     21  O6  UNK     1      45.170  17.755  12.730  1.00  0.00    -0.774 OA
ATOM     22  H10 UNK     1      44.221  17.865  12.507  1.00  0.00     0.167 HD
ENDBRANCH  19  21
ENDBRANCH  15  19
BRANCH  16  23
ATOM     23  O5  UNK     1      47.285  19.358   9.350  1.00  0.00    -0.390 OA
ATOM     24  H8  UNK     1      46.862  18.484   9.301  1.00  0.00     0.210 HD
ENDBRANCH  16  23
BRANCH  17  25
ATOM     25  O3  UNK     1      47.460  22.230   9.759  1.00  0.00    -0.390 OA
ATOM     26  H6  UNK     1      47.832  21.959   8.904  1.00  0.00     0.210 HD
ENDBRANCH  17  25
BRANCH  18  27
ATOM     27  O4  UNK     1      44.808  23.304  10.458  1.00  0.00    -0.388 OA
ATOM     28  H7  UNK     1      44.403  23.037   9.617  1.00  0.00     0.210 HD
ENDBRANCH  18  27
ENDBRANCH  12  13
ENDBRANCH   3  12
BRANCH   5  29
ATOM     29  O9  UNK     1      42.702  19.554  13.774  1.00  0.00    -0.356 OA
ATOM     30  H12 UNK     1      43.103  19.086  13.021  1.00  0.00     0.218 HD
ENDBRANCH   5  29
BRANCH   8  31
ATOM     31  O10 UNK     1      40.026  19.066  13.986  1.00  0.00    -0.357 OA
ATOM     32  H13 UNK     1      40.746  18.417  14.010  1.00  0.00     0.217 HD
ENDBRANCH   8  31
BRANCH  10  33
ATOM     33  C16 UNK     1      36.969  24.171  11.304  1.00  0.00    -0.002 A 
ATOM     34  C17 UNK     1      37.284  25.502  11.590  1.00  0.00     0.014 A 
ATOM     35  C19 UNK     1      36.515  26.534  11.050  1.00  0.00     0.001 A 
ATOM     36  C21 UNK     1      35.431  26.239  10.224  1.00  0.00     0.000 A 
ATOM     37  C20 UNK     1      35.114  24.911   9.937  1.00  0.00     0.001 A 
ATOM     38  C18 UNK     1      35.882  23.879  10.476  1.00  0.00     0.014 A 
ENDBRANCH  10  33
TORSDOF 10
ENDMDL
MODEL 17
REMARK VINA RESULT:      -5.8      2.788      4.091
REMARK  10 active torsions:
REMARK  status: ('A' for Active; 'I' for Inactive)
REMARK    1  A    between atoms: O2_2  and  C4_15 
REMARK    2  A    between atoms: O2_2  and  C7_18 
REMARK    3  A    between atoms: O3_3  and  C1_12 
REMARK    4  A    between atoms: O4_4  and  C2_13 
REMARK    5  A    between atoms: O5_5  and  C3_14 
REMARK    6  A    between atoms: O6_6  and  C6_17 
REMARK    7  A    between atoms: O9_9  and  C9_20 
REMARK    8  A    between atoms: O10_10  and  C12_23 
REMARK    9  A    between atoms: C5_16  and  C6_17 
REMARK   10  A    between atoms: C14_25  and  C16_27 
ROOT
ATOM      1  O8  UNK     1      42.369  22.419  11.934  1.00  0.00    -0.309 OA
ATOM      2  O11 UNK     1      39.077  20.219  12.894  1.00  0.00    -0.287 OA
ATOM      3  C7  UNK     1      43.764  19.084  11.469  1.00  0.00     0.110 A 
ATOM      4  C8  UNK     1      43.643  20.473  11.525  1.00  0.00     0.078 A 
ATOM      5  C9  UNK     1      42.673  18.273  11.785  1.00  0.00     0.134 A 
ATOM      6  C10 UNK     1      42.427  21.049  11.896  1.00  0.00     0.096 A 
ATOM      7  C11 UNK     1      41.340  20.236  12.211  1.00  0.00     0.084 A 
ATOM      8  C12 UNK     1      41.457  18.846  12.157  1.00  0.00     0.118 A 
ATOM      9  C13 UNK     1      40.071  20.870  12.602  1.00  0.00     0.190 A 
ATOM     10  C14 UNK     1      41.172  23.019  12.293  1.00  0.00     0.090 A 
ATOM     11  C15 UNK     1      40.058  22.347  12.623  1.00  0.00     0.094 A 
ENDROOT
BRANCH   3  12
ATOM     12  O2  UNK     1      44.956  18.531  11.104  1.00  0.00    -0.315 OA
BRANCH  12  13
ATOM     13  C4  UNK     1      46.109  19.367  11.214  1.00  0.00     0.299 C 
ATOM     14  O1  UNK     1      46.487  19.837   9.922  1.00  0.00    -0.340 OA
ATOM     15  C5  UNK     1      47.621  20.696   9.970  1.00  0.00     0.253 C 
ATOM     16  C3  UNK     1      48.845  19.959  10.499  1.00  0.00     0.189 C 
ATOM     17  C1  UNK     1      48.549  19.321  11.856  1.00  0.00     0.183 C 
ATOM     18  C2  UNK     1      47.236  18.537  11.830  1.00  0.00     0.205 C 
BRANCH  15  19
ATOM     19  C6  UNK     1      47.811  21.092   8.542  1.00  0.00     0.172 C 
ATOM     20  O7  UNK     1      48.866  21.025   7.929  1.00  0.00    -0.648 OA
BRANCH  19  21
ATOM     21  O6  UNK     1      46.648  21.544   8.011  1.00  0.00    -0.774 OA
ATOM     22  H10 UNK     1      46.498  21.196   7.107  1.00  0.00     0.167 HD
ENDBRANCH  19  21
ENDBRANCH  15  19
BRANCH  16  23
ATOM     23  O5  UNK     1      49.913  20.893  10.646  1.00  0.00    -0.390 OA
ATOM     24  H8  UNK     1      49.944  21.444   9.846  1.00  0.00     0.210 HD
ENDBRANCH  16  23
BRANCH  17  25
ATOM     25  O3  UNK     1      49.625  18.437  12.174  1.00  0.00    -0.390 OA
ATOM     26  H6  UNK     1      50.355  18.629  11.563  1.00  0.00     0.210 HD
ENDBRANCH  17  25
BRANCH  18  27
ATOM     27  O4  UNK     1      46.862  18.195  13.164  1.00  0.00    -0.388 OA
ATOM     28  H7  UNK     1      46.756  19.022  13.662  1.00  0.00     0.210 HD
ENDBRANCH  18  27
ENDBRANCH  12  13
ENDBRANCH   3  12
BRANCH   5  29
ATOM     29  O9  UNK     1      42.800  16.915  11.728  1.00  0.00    -0.356 OA
ATOM     30  H12 UNK     1      42.101  16.564  11.149  1.00  0.00     0.218 HD
ENDBRANCH   5  29
BRANCH   8  31
ATOM     31  O10 UNK     1      40.415  18.020  12.458  1.00  0.00    -0.357 OA
ATOM     32  H13 UNK     1      40.495  17.178  11.984  1.00  0.00     0.217 HD
ENDBRANCH   8  31
BRANCH  10  33
ATOM     33  C16 UNK     1      41.221  24.496  12.305  1.00  0.00    -0.002 A 
ATOM     34  C17 UNK     1      40.092  25.232  12.673  1.00  0.00     0.014 A 
ATOM     35  C19 UNK     1      40.139  26.626  12.686  1.00  0.00     0.001 A 
ATOM     36  C21 UNK     1      41.314  27.288  12.330  1.00  0.00     0.000 A 
ATOM     37  C20 UNK     1      42.443  26.556  11.962  1.00  0.00     0.001 A 
ATOM     38  C18 UNK     1      42.396  25.162  11.950  1.00  0.00     0.014 A 
ENDBRANCH  10  33
TORSDOF 10
ENDMDL
MODEL 18
REMARK VINA RESULT:      -5.8      2.568      4.139
REMARK  10 active torsions:
REMARK  status: ('A' for Active; 'I' for Inactive)
REMARK    1  A    between atoms: O2_2  and  C4_15 
REMARK    2  A    between atoms: O2_2  and  C7_18 
REMARK    3  A    between atoms: O3_3  and  C1_12 
REMARK    4  A    between atoms: O4_4  and  C2_13 
REMARK    5  A    between atoms: O5_5  and  C3_14 
REMARK    6  A    between atoms: O6_6  and  C6_17 
REMARK    7  A    between atoms: O9_9  and  C9_20 
REMARK    8  A    between atoms: O10_10  and  C12_23 
REMARK    9  A    between atoms: C5_16  and  C6_17 
REMARK   10  A    between atoms: C14_25  and  C16_27 
ROOT
ATOM      1  O8  UNK     1      37.742  23.263  11.450  1.00  0.00    -0.309 OA
ATOM      2  O11 UNK     1      36.731  20.098  13.809  1.00  0.00    -0.287 OA
ATOM      3  C7  UNK     1      41.043  21.766  11.830  1.00  0.00     0.110 A 
ATOM      4  C8  UNK     1      40.016  22.627  11.442  1.00  0.00     0.078 A 
ATOM      5  C9  UNK     1      40.764  20.662  12.637  1.00  0.00     0.134 A 
ATOM      6  C10 UNK     1      38.708  22.381  11.862  1.00  0.00     0.096 A 
ATOM      7  C11 UNK     1      38.432  21.279  12.669  1.00  0.00     0.084 A 
ATOM      8  C12 UNK     1      39.457  20.414  13.059  1.00  0.00     0.118 A 
ATOM      9  C13 UNK     1      37.045  21.045  13.099  1.00  0.00     0.190 A 
ATOM     10  C14 UNK     1      36.432  23.040  11.846  1.00  0.00     0.090 A 
ATOM     11  C15 UNK     1      36.041  22.019  12.625  1.00  0.00     0.094 A 
ENDROOT
BRANCH   3  12
ATOM     12  O2  UNK     1      42.317  22.015  11.413  1.00  0.00    -0.315 OA
BRANCH  12  13
ATOM     13  C4  UNK     1      42.842  23.312  11.699  1.00  0.00     0.299 C 
ATOM     14  O1  UNK     1      41.805  24.150  12.205  1.00  0.00    -0.340 OA
ATOM     15  C5  UNK     1      42.273  25.454  12.530  1.00  0.00     0.253 C 
ATOM     16  C3  UNK     1      42.797  26.172  11.292  1.00  0.00     0.189 C 
ATOM     17  C1  UNK     1      43.866  25.335  10.591  1.00  0.00     0.183 C 
ATOM     18  C2  UNK     1      43.406  23.889  10.400  1.00  0.00     0.205 C 
BRANCH  15  19
ATOM     19  C6  UNK     1      41.055  26.132  13.067  1.00  0.00     0.172 C 
ATOM     20  O7  UNK     1      39.911  25.919  12.694  1.00  0.00    -0.648 OA
BRANCH  19  21
ATOM     21  O6  UNK     1      41.390  27.025  14.031  1.00  0.00    -0.774 OA
ATOM     22  H10 UNK     1      41.584  26.586  14.886  1.00  0.00     0.167 HD
ENDBRANCH  19  21
ENDBRANCH  15  19
BRANCH  16  23
ATOM     23  O5  UNK     1      43.368  27.417  11.694  1.00  0.00    -0.390 OA
ATOM     24  H8  UNK     1      43.918  27.257  12.480  1.00  0.00     0.210 HD
ENDBRANCH  16  23
BRANCH  17  25
ATOM     25  O3  UNK     1      44.125  25.925   9.316  1.00  0.00    -0.390 OA
ATOM     26  H6  UNK     1      45.072  26.137   9.275  1.00  0.00     0.210 HD
ENDBRANCH  17  25
BRANCH  18  27
ATOM     27  O4  UNK     1      44.518  23.087  10.000  1.00  0.00    -0.388 OA
ATOM     28  H7  UNK     1      44.930  22.733  10.805  1.00  0.00     0.210 HD
ENDBRANCH  18  27
ENDBRANCH  12  13
ENDBRANCH   3  12
BRANCH   5  29
ATOM     29  O9  UNK     1      41.774  19.825  13.013  1.00  0.00    -0.356 OA
ATOM     30  H12 UNK     1      41.675  19.629  13.961  1.00  0.00     0.218 HD
ENDBRANCH   5  29
BRANCH   8  31
ATOM     31  O10 UNK     1      39.224  19.326  13.847  1.00  0.00    -0.357 OA
ATOM     32  H13 UNK     1      39.491  18.511  13.395  1.00  0.00     0.217 HD
ENDBRANCH   8  31
BRANCH  10  33
ATOM     33  C16 UNK     1      35.474  24.049  11.350  1.00  0.00    -0.002 A 
ATOM     34  C17 UNK     1      35.868  24.970  10.375  1.00  0.00     0.014 A 
ATOM     35  C19 UNK     1      34.963  25.922   9.906  1.00  0.00     0.001 A 
ATOM     36  C21 UNK     1      33.663  25.958  10.410  1.00  0.00     0.000 A 
ATOM     37  C20 UNK     1      33.267  25.041  11.383  1.00  0.00     0.001 A 
ATOM     38  C18 UNK     1      34.172  24.088  11.852  1.00  0.00     0.014 A 
ENDBRANCH  10  33
TORSDOF 10
ENDMDL
MODEL 19
REMARK VINA RESULT:      -5.8      3.181      6.509
REMARK  10 active torsions:
REMARK  status: ('A' for Active; 'I' for Inactive)
REMARK    1  A    between atoms: O2_2  and  C4_15 
REMARK    2  A    between atoms: O2_2  and  C7_18 
REMARK    3  A    between atoms: O3_3  and  C1_12 
REMARK    4  A    between atoms: O4_4  and  C2_13 
REMARK    5  A    between atoms: O5_5  and  C3_14 
REMARK    6  A    between atoms: O6_6  and  C6_17 
REMARK    7  A    between atoms: O9_9  and  C9_20 
REMARK    8  A    between atoms: O10_10  and  C12_23 
REMARK    9  A    between atoms: C5_16  and  C6_17 
REMARK   10  A    between atoms: C14_25  and  C16_27 
ROOT
ATOM      1  O8  UNK     1      40.642  21.384  12.143  1.00  0.00    -0.309 OA
ATOM      2  O11 UNK     1      42.958  18.110  11.423  1.00  0.00    -0.287 OA
ATOM      3  C7  UNK     1      43.545  23.053  10.704  1.00  0.00     0.110 A 
ATOM      4  C8  UNK     1      42.292  22.835  11.278  1.00  0.00     0.078 A 
ATOM      5  C9  UNK     1      44.387  21.974  10.430  1.00  0.00     0.134 A 
ATOM      6  C10 UNK     1      41.883  21.535  11.579  1.00  0.00     0.096 A 
ATOM      7  C11 UNK     1      42.726  20.459  11.305  1.00  0.00     0.084 A 
ATOM      8  C12 UNK     1      43.981  20.673  10.730  1.00  0.00     0.118 A 
ATOM      9  C13 UNK     1      42.270  19.100  11.633  1.00  0.00     0.190 A 
ATOM     10  C14 UNK     1      40.206  20.103  12.445  1.00  0.00     0.090 A 
ATOM     11  C15 UNK     1      40.926  18.990  12.235  1.00  0.00     0.094 A 
ENDROOT
BRANCH   3  12
ATOM     12  O2  UNK     1      43.935  24.327  10.414  1.00  0.00    -0.315 OA
BRANCH  12  13
ATOM     13  C4  UNK     1      44.222  25.177  11.525  1.00  0.00     0.299 C 
ATOM     14  O1  UNK     1      44.132  24.431  12.737  1.00  0.00    -0.340 OA
ATOM     15  C5  UNK     1      44.430  25.221  13.882  1.00  0.00     0.253 C 
ATOM     16  C3  UNK     1      43.427  26.358  14.039  1.00  0.00     0.189 C 
ATOM     17  C1  UNK     1      43.355  27.197  12.763  1.00  0.00     0.183 C 
ATOM     18  C2  UNK     1      43.202  26.315  11.524  1.00  0.00     0.205 C 
BRANCH  15  19
ATOM     19  C6  UNK     1      44.317  24.248  15.010  1.00  0.00     0.172 C 
ATOM     20  O7  UNK     1      44.574  24.495  16.179  1.00  0.00    -0.648 OA
BRANCH  19  21
ATOM     21  O6  UNK     1      43.889  23.043  14.561  1.00  0.00    -0.774 OA
ATOM     22  H10 UNK     1      44.314  22.796  13.712  1.00  0.00     0.167 HD
ENDBRANCH  19  21
ENDBRANCH  15  19
BRANCH  16  23
ATOM     23  O5  UNK     1      43.845  27.189  15.121  1.00  0.00    -0.390 OA
ATOM     24  H8  UNK     1      43.308  28.000  15.103  1.00  0.00     0.210 HD
ENDBRANCH  16  23
BRANCH  17  25
ATOM     25  O3  UNK     1      42.229  28.069  12.870  1.00  0.00    -0.390 OA
ATOM     26  H6  UNK     1      42.125  28.304  13.807  1.00  0.00     0.210 HD
ENDBRANCH  17  25
BRANCH  18  27
ATOM     27  O4  UNK     1      43.412  27.104  10.352  1.00  0.00    -0.388 OA
ATOM     28  H7  UNK     1      44.252  27.579  10.464  1.00  0.00     0.210 HD
ENDBRANCH  18  27
ENDBRANCH  12  13
ENDBRANCH   3  12
BRANCH   5  29
ATOM     29  O9  UNK     1      45.611  22.195   9.868  1.00  0.00    -0.356 OA
ATOM     30  H12 UNK     1      46.072  22.873  10.393  1.00  0.00     0.218 HD
ENDBRANCH   5  29
BRANCH   8  31
ATOM     31  O10 UNK     1      44.831  19.645  10.448  1.00  0.00    -0.357 OA
ATOM     32  H13 UNK     1      45.706  19.808  10.831  1.00  0.00     0.217 HD
ENDBRANCH   8  31
BRANCH  10  33
ATOM     33  C16 UNK     1      38.860  20.055  13.052  1.00  0.00    -0.002 A 
ATOM     34  C17 UNK     1      38.652  19.354  14.243  1.00  0.00     0.014 A 
ATOM     35  C19 UNK     1      37.381  19.309  14.816  1.00  0.00     0.001 A 
ATOM     36  C21 UNK     1      36.315  19.966  14.202  1.00  0.00     0.000 A 
ATOM     37  C20 UNK     1      36.519  20.668  13.013  1.00  0.00     0.001 A 
ATOM     38  C18 UNK     1      37.790  20.712  12.440  1.00  0.00     0.014 A 
ENDBRANCH  10  33
TORSDOF 10
ENDMDL
