MODEL 1
REMARK VINA RESULT:      -7.2      0.000      0.000
REMARK  10 active torsions:
REMARK  status: ('A' for Active; 'I' for Inactive)
REMARK    1  A    between atoms: O2_2  and  C4_15 
REMARK    2  A    between atoms: O2_2  and  C7_18 
REMARK    3  A    between atoms: O3_3  and  C1_12 
REMARK    4  A    between atoms: O4_4  and  C2_13 
REMARK    5  A    between atoms: O5_5  and  C3_14 
REMARK    6  A    between atoms: O6_6  and  C6_17 
REMARK    7  A    between atoms: O9_9  and  C9_20 
REMARK    8  A    between atoms: O10_10  and  C12_23 
REMARK    9  A    between atoms: C5_16  and  C6_17 
REMARK   10  A    between atoms: C14_25  and  C16_27 
ROOT
ATOM      1  O8  UNK     1      38.099  -6.482  -7.375  1.00  0.00    -0.309 OA
ATOM      2  O11 UNK     1      36.108  -7.467  -3.960  1.00  0.00    -0.287 OA
ATOM      3  C7  UNK     1      34.692  -5.867  -8.512  1.00  0.00     0.110 A 
ATOM      4  C8  UNK     1      36.082  -5.971  -8.493  1.00  0.00     0.078 A 
ATOM      5  C9  UNK     1      33.950  -6.188  -7.374  1.00  0.00     0.134 A 
ATOM      6  C10 UNK     1      36.731  -6.398  -7.333  1.00  0.00     0.096 A 
ATOM      7  C11 UNK     1      35.987  -6.718  -6.199  1.00  0.00     0.084 A 
ATOM      8  C12 UNK     1      34.594  -6.615  -6.213  1.00  0.00     0.118 A 
ATOM      9  C13 UNK     1      36.696  -7.167  -4.990  1.00  0.00     0.190 A 
ATOM     10  C14 UNK     1      38.770  -6.896  -6.235  1.00  0.00     0.090 A 
ATOM     11  C15 UNK     1      38.168  -7.237  -5.085  1.00  0.00     0.094 A 
ENDROOT
BRANCH   3  12
ATOM     12  O2  UNK     1      34.068  -5.449  -9.651  1.00  0.00    -0.315 OA
BRANCH  12  13
ATOM     13  C4  UNK     1      33.847  -4.044  -9.780  1.00  0.00     0.299 C 
ATOM     14  O1  UNK     1      32.504  -3.732  -9.417  1.00  0.00    -0.340 OA
ATOM     15  C5  UNK     1      32.229  -2.338  -9.504  1.00  0.00     0.253 C 
ATOM     16  C3  UNK     1      32.381  -1.839 -10.936  1.00  0.00     0.189 C 
ATOM     17  C1  UNK     1      33.762  -2.189 -11.488  1.00  0.00     0.183 C 
ATOM     18  C2  UNK     1      34.109  -3.657 -11.235  1.00  0.00     0.205 C 
BRANCH  15  19
ATOM     19  C6  UNK     1      30.809  -2.239  -9.050  1.00  0.00     0.172 C 
ATOM     20  O7  UNK     1      30.427  -2.396  -7.900  1.00  0.00    -0.648 OA
BRANCH  19  21
ATOM     21  O6  UNK     1      29.993  -1.953 -10.093  1.00  0.00    -0.774 OA
ATOM     22  H10 UNK     1      29.057  -1.863  -9.812  1.00  0.00     0.167 HD
ENDBRANCH  19  21
ENDBRANCH  15  19
BRANCH  16  23
ATOM     23  O5  UNK     1      32.221  -0.421 -10.945  1.00  0.00    -0.390 OA
ATOM     24  H8  UNK     1      32.643  -0.065 -10.144  1.00  0.00     0.210 HD
ENDBRANCH  16  23
BRANCH  17  25
ATOM     25  O3  UNK     1      33.753  -1.938 -12.895  1.00  0.00    -0.390 OA
ATOM     26  H6  UNK     1      34.069  -2.740 -13.341  1.00  0.00     0.210 HD
ENDBRANCH  17  25
BRANCH  18  27
ATOM     27  O4  UNK     1      35.493  -3.872 -11.514  1.00  0.00    -0.388 OA
ATOM     28  H7  UNK     1      35.962  -3.040 -11.336  1.00  0.00     0.210 HD
ENDBRANCH  18  27
ENDBRANCH  12  13
ENDBRANCH   3  12
BRANCH   5  29
ATOM     29  O9  UNK     1      32.589  -6.083  -7.401  1.00  0.00    -0.356 OA
ATOM     30  H12 UNK     1      32.212  -6.979  -7.445  1.00  0.00     0.218 HD
ENDBRANCH   5  29
BRANCH   8  31
ATOM     31  O10 UNK     1      33.836  -6.919  -5.123  1.00  0.00    -0.357 OA
ATOM     32  H13 UNK     1      33.659  -6.126  -4.594  1.00  0.00     0.217 HD
ENDBRANCH   8  31
BRANCH  10  33
ATOM     33  C16 UNK     1      40.238  -6.955  -6.391  1.00  0.00    -0.002 A 
ATOM     34  C17 UNK     1      40.799  -7.519  -7.540  1.00  0.00     0.014 A 
ATOM     35  C19 UNK     1      42.186  -7.573  -7.688  1.00  0.00     0.001 A 
ATOM     36  C21 UNK     1      43.015  -7.064  -6.688  1.00  0.00     0.000 A 
ATOM     37  C20 UNK     1      42.458  -6.501  -5.540  1.00  0.00     0.001 A 
ATOM     38  C18 UNK     1      41.071  -6.446  -5.392  1.00  0.00     0.014 A 
ENDBRANCH  10  33
TORSDOF 10
ENDMDL
MODEL 2
REMARK VINA RESULT:      -7.1     18.266     20.569
REMARK  10 active torsions:
REMARK  status: ('A' for Active; 'I' for Inactive)
REMARK    1  A    between atoms: O2_2  and  C4_15 
REMARK    2  A    between atoms: O2_2  and  C7_18 
REMARK    3  A    between atoms: O3_3  and  C1_12 
REMARK    4  A    between atoms: O4_4  and  C2_13 
REMARK    5  A    between atoms: O5_5  and  C3_14 
REMARK    6  A    between atoms: O6_6  and  C6_17 
REMARK    7  A    between atoms: O9_9  and  C9_20 
REMARK    8  A    between atoms: O10_10  and  C12_23 
REMARK    9  A    between atoms: C5_16  and  C6_17 
REMARK   10  A    between atoms: C14_25  and  C16_27 
ROOT
ATOM      1  O8  UNK     1      44.187   2.273   8.125  1.00  0.00    -0.309 OA
ATOM      2  O11 UNK     1      42.614   5.507  10.042  1.00  0.00    -0.287 OA
ATOM      3  C7  UNK     1      40.728   1.154   8.372  1.00  0.00     0.110 A 
ATOM      4  C8  UNK     1      42.091   1.187   8.078  1.00  0.00     0.078 A 
ATOM      5  C9  UNK     1      40.126   2.231   9.026  1.00  0.00     0.134 A 
ATOM      6  C10 UNK     1      42.852   2.299   8.440  1.00  0.00     0.096 A 
ATOM      7  C11 UNK     1      42.249   3.372   9.093  1.00  0.00     0.084 A 
ATOM      8  C12 UNK     1      40.885   3.344   9.389  1.00  0.00     0.118 A 
ATOM      9  C13 UNK     1      43.076   4.531   9.465  1.00  0.00     0.190 A 
ATOM     10  C14 UNK     1      44.967   3.368   8.466  1.00  0.00     0.090 A 
ATOM     11  C15 UNK     1      44.505   4.457   9.100  1.00  0.00     0.094 A 
ENDROOT
BRANCH   3  12
ATOM     12  O2  UNK     1      39.992   0.063   8.014  1.00  0.00    -0.315 OA
BRANCH  12  13
ATOM     13  C4  UNK     1      39.730  -0.896   9.040  1.00  0.00     0.299 C 
ATOM     14  O1  UNK     1      39.591  -0.233  10.294  1.00  0.00    -0.340 OA
ATOM     15  C5  UNK     1      39.305  -1.137  11.355  1.00  0.00     0.253 C 
ATOM     16  C3  UNK     1      40.446  -2.128  11.553  1.00  0.00     0.189 C 
ATOM     17  C1  UNK     1      40.764  -2.855  10.247  1.00  0.00     0.183 C 
ATOM     18  C2  UNK     1      40.904  -1.875   9.082  1.00  0.00     0.205 C 
BRANCH  15  19
ATOM     19  C6  UNK     1      39.164  -0.240  12.542  1.00  0.00     0.172 C 
ATOM     20  O7  UNK     1      39.188  -0.608  13.707  1.00  0.00    -0.648 OA
BRANCH  19  21
ATOM     21  O6  UNK     1      39.000   1.048  12.152  1.00  0.00    -0.774 OA
ATOM     22  H10 UNK     1      39.744   1.359  11.593  1.00  0.00     0.167 HD
ENDBRANCH  19  21
ENDBRANCH  15  19
BRANCH  16  23
ATOM     23  O5  UNK     1      40.055  -3.085  12.536  1.00  0.00    -0.390 OA
ATOM     24  H8  UNK     1      40.498  -2.857  13.372  1.00  0.00     0.210 HD
ENDBRANCH  16  23
BRANCH  17  25
ATOM     25  O3  UNK     1      41.993  -3.563  10.423  1.00  0.00    -0.390 OA
ATOM     26  H6  UNK     1      41.776  -4.462  10.722  1.00  0.00     0.210 HD
ENDBRANCH  17  25
BRANCH  18  27
ATOM     27  O4  UNK     1      40.926  -2.600   7.852  1.00  0.00    -0.388 OA
ATOM     28  H7  UNK     1      40.576  -3.489   8.028  1.00  0.00     0.210 HD
ENDBRANCH  18  27
ENDBRANCH  12  13
ENDBRANCH   3  12
BRANCH   5  29
ATOM     29  O9  UNK     1      38.792   2.191   9.311  1.00  0.00    -0.356 OA
ATOM     30  H12 UNK     1      38.372   2.980   8.927  1.00  0.00     0.218 HD
ENDBRANCH   5  29
BRANCH   8  31
ATOM     31  O10 UNK     1      40.262   4.375  10.027  1.00  0.00    -0.357 OA
ATOM     32  H13 UNK     1      40.709   4.584  10.861  1.00  0.00     0.217 HD
ENDBRANCH   8  31
BRANCH  10  33
ATOM     33  C16 UNK     1      46.388   3.234   8.085  1.00  0.00    -0.002 A 
ATOM     34  C17 UNK     1      46.744   2.501   6.950  1.00  0.00     0.014 A 
ATOM     35  C19 UNK     1      48.086   2.375   6.590  1.00  0.00     0.001 A 
ATOM     36  C21 UNK     1      49.076   2.983   7.363  1.00  0.00     0.000 A 
ATOM     37  C20 UNK     1      48.724   3.715   8.497  1.00  0.00     0.001 A 
ATOM     38  C18 UNK     1      47.381   3.841   8.856  1.00  0.00     0.014 A 
ENDBRANCH  10  33
TORSDOF 10
ENDMDL
MODEL 3
REMARK VINA RESULT:      -7.1     13.323     16.873
REMARK  10 active torsions:
REMARK  status: ('A' for Active; 'I' for Inactive)
REMARK    1  A    between atoms: O2_2  and  C4_15 
REMARK    2  A    between atoms: O2_2  and  C7_18 
REMARK    3  A    between atoms: O3_3  and  C1_12 
REMARK    4  A    between atoms: O4_4  and  C2_13 
REMARK    5  A    between atoms: O5_5  and  C3_14 
REMARK    6  A    between atoms: O6_6  and  C6_17 
REMARK    7  A    between atoms: O9_9  and  C9_20 
REMARK    8  A    between atoms: O10_10  and  C12_23 
REMARK    9  A    between atoms: C5_16  and  C6_17 
REMARK   10  A    between atoms: C14_25  and  C16_27 
ROOT
ATOM      1  O8  UNK     1      37.725  -5.599   5.685  1.00  0.00    -0.309 OA
ATOM      2  O11 UNK     1      37.068  -7.120   9.408  1.00  0.00    -0.287 OA
ATOM      3  C7  UNK     1      37.593  -2.474   7.555  1.00  0.00     0.110 A 
ATOM      4  C8  UNK     1      37.710  -3.384   6.505  1.00  0.00     0.078 A 
ATOM      5  C9  UNK     1      37.369  -2.929   8.855  1.00  0.00     0.134 A 
ATOM      6  C10 UNK     1      37.602  -4.753   6.757  1.00  0.00     0.096 A 
ATOM      7  C11 UNK     1      37.378  -5.205   8.057  1.00  0.00     0.084 A 
ATOM      8  C12 UNK     1      37.260  -4.296   9.111  1.00  0.00     0.118 A 
ATOM      9  C13 UNK     1      37.267  -6.652   8.294  1.00  0.00     0.190 A 
ATOM     10  C14 UNK     1      37.630  -6.964   5.907  1.00  0.00     0.090 A 
ATOM     11  C15 UNK     1      37.410  -7.521   7.109  1.00  0.00     0.094 A 
ENDROOT
BRANCH   3  12
ATOM     12  O2  UNK     1      37.700  -1.139   7.297  1.00  0.00    -0.315 OA
BRANCH  12  13
ATOM     13  C4  UNK     1      39.020  -0.594   7.282  1.00  0.00     0.299 C 
ATOM     14  O1  UNK     1      39.791  -1.172   8.334  1.00  0.00    -0.340 OA
ATOM     15  C5  UNK     1      41.127  -0.683   8.356  1.00  0.00     0.253 C 
ATOM     16  C3  UNK     1      41.157   0.818   8.619  1.00  0.00     0.189 C 
ATOM     17  C1  UNK     1      40.289   1.563   7.605  1.00  0.00     0.183 C 
ATOM     18  C2  UNK     1      38.909   0.919   7.473  1.00  0.00     0.205 C 
BRANCH  15  19
ATOM     19  C6  UNK     1      41.749  -1.437   9.487  1.00  0.00     0.172 C 
ATOM     20  O7  UNK     1      42.033  -0.960  10.576  1.00  0.00    -0.648 OA
BRANCH  19  21
ATOM     21  O6  UNK     1      41.962  -2.730   9.141  1.00  0.00    -0.774 OA
ATOM     22  H10 UNK     1      42.914  -2.963   9.162  1.00  0.00     0.167 HD
ENDBRANCH  19  21
ENDBRANCH  15  19
BRANCH  16  23
ATOM     23  O5  UNK     1      42.504   1.275   8.504  1.00  0.00    -0.390 OA
ATOM     24  H8  UNK     1      42.893   1.294   9.395  1.00  0.00     0.210 HD
ENDBRANCH  16  23
BRANCH  17  25
ATOM     25  O3  UNK     1      40.145   2.911   8.052  1.00  0.00    -0.390 OA
ATOM     26  H6  UNK     1      40.841   3.082   8.708  1.00  0.00     0.210 HD
ENDBRANCH  17  25
BRANCH  18  27
ATOM     27  O4  UNK     1      38.238   1.464   6.337  1.00  0.00    -0.388 OA
ATOM     28  H7  UNK     1      37.593   0.805   6.031  1.00  0.00     0.210 HD
ENDBRANCH  18  27
ENDBRANCH  12  13
ENDBRANCH   3  12
BRANCH   5  29
ATOM     29  O9  UNK     1      37.255  -2.032   9.877  1.00  0.00    -0.356 OA
ATOM     30  H12 UNK     1      36.314  -1.809   9.988  1.00  0.00     0.218 HD
ENDBRANCH   5  29
BRANCH   8  31
ATOM     31  O10 UNK     1      37.041  -4.702  10.394  1.00  0.00    -0.357 OA
ATOM     32  H13 UNK     1      36.113  -4.574  10.641  1.00  0.00     0.217 HD
ENDBRANCH   8  31
BRANCH  10  33
ATOM     33  C16 UNK     1      37.772  -7.783   4.686  1.00  0.00    -0.002 A 
ATOM     34  C17 UNK     1      38.955  -8.486   4.446  1.00  0.00     0.014 A 
ATOM     35  C19 UNK     1      39.089  -9.259   3.293  1.00  0.00     0.001 A 
ATOM     36  C21 UNK     1      38.040  -9.333   2.376  1.00  0.00     0.000 A 
ATOM     37  C20 UNK     1      36.857  -8.632   2.612  1.00  0.00     0.001 A 
ATOM     38  C18 UNK     1      36.724  -7.859   3.766  1.00  0.00     0.014 A 
ENDBRANCH  10  33
TORSDOF 10
ENDMDL
MODEL 4
REMARK VINA RESULT:      -7.0     19.172     21.866
REMARK  10 active torsions:
REMARK  status: ('A' for Active; 'I' for Inactive)
REMARK    1  A    between atoms: O2_2  and  C4_15 
REMARK    2  A    between atoms: O2_2  and  C7_18 
REMARK    3  A    between atoms: O3_3  and  C1_12 
REMARK    4  A    between atoms: O4_4  and  C2_13 
REMARK    5  A    between atoms: O5_5  and  C3_14 
REMARK    6  A    between atoms: O6_6  and  C6_17 
REMARK    7  A    between atoms: O9_9  and  C9_20 
REMARK    8  A    between atoms: O10_10  and  C12_23 
REMARK    9  A    between atoms: C5_16  and  C6_17 
REMARK   10  A    between atoms: C14_25  and  C16_27 
ROOT
ATOM      1  O8  UNK     1      45.122  12.837 -10.718  1.00  0.00    -0.309 OA
ATOM      2  O11 UNK     1      42.732   9.542 -10.909  1.00  0.00    -0.287 OA
ATOM      3  C7  UNK     1      47.071  10.604  -8.598  1.00  0.00     0.110 A 
ATOM      4  C8  UNK     1      46.660  11.733  -9.307  1.00  0.00     0.078 A 
ATOM      5  C9  UNK     1      46.298   9.442  -8.623  1.00  0.00     0.134 A 
ATOM      6  C10 UNK     1      45.474  11.697 -10.043  1.00  0.00     0.096 A 
ATOM      7  C11 UNK     1      44.705  10.535 -10.065  1.00  0.00     0.084 A 
ATOM      8  C12 UNK     1      45.113   9.403  -9.356  1.00  0.00     0.118 A 
ATOM      9  C13 UNK     1      43.458  10.526 -10.846  1.00  0.00     0.190 A 
ATOM     10  C14 UNK     1      43.952  12.828 -11.463  1.00  0.00     0.090 A 
ATOM     11  C15 UNK     1      43.125  11.776 -11.559  1.00  0.00     0.094 A 
ENDROOT
BRANCH   3  12
ATOM     12  O2  UNK     1      48.232  10.649  -7.883  1.00  0.00    -0.315 OA
BRANCH  12  13
ATOM     13  C4  UNK     1      48.139  11.136  -6.544  1.00  0.00     0.299 C 
ATOM     14  O1  UNK     1      48.618  12.478  -6.486  1.00  0.00    -0.340 OA
ATOM     15  C5  UNK     1      48.530  13.028  -5.176  1.00  0.00     0.253 C 
ATOM     16  C3  UNK     1      49.402  12.251  -4.197  1.00  0.00     0.189 C 
ATOM     17  C1  UNK     1      49.052  10.763  -4.221  1.00  0.00     0.183 C 
ATOM     18  C2  UNK     1      48.988  10.229  -5.652  1.00  0.00     0.205 C 
BRANCH  15  19
ATOM     19  C6  UNK     1      49.036  14.422  -5.354  1.00  0.00     0.172 C 
ATOM     20  O7  UNK     1      48.720  15.377  -4.661  1.00  0.00    -0.648 OA
BRANCH  19  21
ATOM     21  O6  UNK     1      49.898  14.488  -6.398  1.00  0.00    -0.774 OA
ATOM     22  H10 UNK     1      50.399  13.653  -6.514  1.00  0.00     0.167 HD
ENDBRANCH  19  21
ENDBRANCH  15  19
BRANCH  16  23
ATOM     23  O5  UNK     1      49.179  12.760  -2.883  1.00  0.00    -0.390 OA
ATOM     24  H8  UNK     1      48.272  13.109  -2.844  1.00  0.00     0.210 HD
ENDBRANCH  16  23
BRANCH  17  25
ATOM     25  O3  UNK     1      50.061  10.059  -3.495  1.00  0.00    -0.390 OA
ATOM     26  H6  UNK     1      50.471  10.686  -2.877  1.00  0.00     0.210 HD
ENDBRANCH  17  25
BRANCH  18  27
ATOM     27  O4  UNK     1      48.398   8.929  -5.647  1.00  0.00    -0.388 OA
ATOM     28  H7  UNK     1      49.107   8.285  -5.482  1.00  0.00     0.210 HD
ENDBRANCH  18  27
ENDBRANCH  12  13
ENDBRANCH   3  12
BRANCH   5  29
ATOM     29  O9  UNK     1      46.707   8.342  -7.926  1.00  0.00    -0.356 OA
ATOM     30  H12 UNK     1      45.929   7.788  -7.740  1.00  0.00     0.218 HD
ENDBRANCH   5  29
BRANCH   8  31
ATOM     31  O10 UNK     1      44.385   8.250  -9.356  1.00  0.00    -0.357 OA
ATOM     32  H13 UNK     1      43.718   8.264 -10.058  1.00  0.00     0.217 HD
ENDBRANCH   8  31
BRANCH  10  33
ATOM     33  C16 UNK     1      43.666  14.107 -12.146  1.00  0.00    -0.002 A 
ATOM     34  C17 UNK     1      44.136  15.309 -11.610  1.00  0.00     0.014 A 
ATOM     35  C19 UNK     1      43.867  16.515 -12.256  1.00  0.00     0.001 A 
ATOM     36  C21 UNK     1      43.128  16.525 -13.439  1.00  0.00     0.000 A 
ATOM     37  C20 UNK     1      42.657  15.327 -13.976  1.00  0.00     0.001 A 
ATOM     38  C18 UNK     1      42.926  14.120 -13.330  1.00  0.00     0.014 A 
ENDBRANCH  10  33
TORSDOF 10
ENDMDL
MODEL 5
REMARK VINA RESULT:      -6.9     15.935     19.006
REMARK  10 active torsions:
REMARK  status: ('A' for Active; 'I' for Inactive)
REMARK    1  A    between atoms: O2_2  and  C4_15 
REMARK    2  A    between atoms: O2_2  and  C7_18 
REMARK    3  A    between atoms: O3_3  and  C1_12 
REMARK    4  A    between atoms: O4_4  and  C2_13 
REMARK    5  A    between atoms: O5_5  and  C3_14 
REMARK    6  A    between atoms: O6_6  and  C6_17 
REMARK    7  A    between atoms: O9_9  and  C9_20 
REMARK    8  A    between atoms: O10_10  and  C12_23 
REMARK    9  A    between atoms: C5_16  and  C6_17 
REMARK   10  A    between atoms: C14_25  and  C16_27 
ROOT
ATOM      1  O8  UNK     1      43.996   1.732   8.556  1.00  0.00    -0.309 OA
ATOM      2  O11 UNK     1      42.068   5.086   9.836  1.00  0.00    -0.287 OA
ATOM      3  C7  UNK     1      40.747   0.262   9.309  1.00  0.00     0.110 A 
ATOM      4  C8  UNK     1      42.076   0.403   8.910  1.00  0.00     0.078 A 
ATOM      5  C9  UNK     1      40.029   1.372   9.757  1.00  0.00     0.134 A 
ATOM      6  C10 UNK     1      42.687   1.657   8.960  1.00  0.00     0.096 A 
ATOM      7  C11 UNK     1      41.968   2.763   9.408  1.00  0.00     0.084 A 
ATOM      8  C12 UNK     1      40.637   2.627   9.808  1.00  0.00     0.118 A 
ATOM      9  C13 UNK     1      42.637   4.073   9.452  1.00  0.00     0.190 A 
ATOM     10  C14 UNK     1      44.626   2.967   8.588  1.00  0.00     0.090 A 
ATOM     11  C15 UNK     1      44.044   4.102   9.003  1.00  0.00     0.094 A 
ENDROOT
BRANCH   3  12
ATOM     12  O2  UNK     1      40.159  -0.967   9.256  1.00  0.00    -0.315 OA
BRANCH  12  13
ATOM     13  C4  UNK     1      39.174  -1.162   8.241  1.00  0.00     0.299 C 
ATOM     14  O1  UNK     1      37.871  -1.092   8.815  1.00  0.00    -0.340 OA
ATOM     15  C5  UNK     1      36.842  -1.257   7.845  1.00  0.00     0.253 C 
ATOM     16  C3  UNK     1      36.918  -2.633   7.196  1.00  0.00     0.189 C 
ATOM     17  C1  UNK     1      38.308  -2.880   6.609  1.00  0.00     0.183 C 
ATOM     18  C2  UNK     1      39.407  -2.537   7.614  1.00  0.00     0.205 C 
BRANCH  15  19
ATOM     19  C6  UNK     1      35.589  -1.111   8.646  1.00  0.00     0.172 C 
ATOM     20  O7  UNK     1      34.551  -1.721   8.441  1.00  0.00    -0.648 OA
BRANCH  19  21
ATOM     21  O6  UNK     1      35.757  -0.201   9.636  1.00  0.00    -0.774 OA
ATOM     22  H10 UNK     1      36.445   0.462   9.413  1.00  0.00     0.167 HD
ENDBRANCH  19  21
ENDBRANCH  15  19
BRANCH  16  23
ATOM     23  O5  UNK     1      35.951  -2.698   6.148  1.00  0.00    -0.390 OA
ATOM     24  H8  UNK     1      36.386  -3.065   5.359  1.00  0.00     0.210 HD
ENDBRANCH  16  23
BRANCH  17  25
ATOM     25  O3  UNK     1      38.399  -4.261   6.255  1.00  0.00    -0.390 OA
ATOM     26  H6  UNK     1      37.523  -4.547   5.948  1.00  0.00     0.210 HD
ENDBRANCH  17  25
BRANCH  18  27
ATOM     27  O4  UNK     1      40.670  -2.517   6.948  1.00  0.00    -0.388 OA
ATOM     28  H7  UNK     1      41.351  -2.324   7.613  1.00  0.00     0.210 HD
ENDBRANCH  18  27
ENDBRANCH  12  13
ENDBRANCH   3  12
BRANCH   5  29
ATOM     29  O9  UNK     1      38.729   1.227  10.145  1.00  0.00    -0.356 OA
ATOM     30  H12 UNK     1      38.155   1.497   9.407  1.00  0.00     0.218 HD
ENDBRANCH   5  29
BRANCH   8  31
ATOM     31  O10 UNK     1      39.904   3.687  10.251  1.00  0.00    -0.357 OA
ATOM     32  H13 UNK     1      39.051   3.391  10.605  1.00  0.00     0.217 HD
ENDBRANCH   8  31
BRANCH  10  33
ATOM     33  C16 UNK     1      46.033   2.934   8.137  1.00  0.00    -0.002 A 
ATOM     34  C17 UNK     1      46.452   1.970   7.216  1.00  0.00     0.014 A 
ATOM     35  C19 UNK     1      47.780   1.940   6.790  1.00  0.00     0.001 A 
ATOM     36  C21 UNK     1      48.692   2.873   7.281  1.00  0.00     0.000 A 
ATOM     37  C20 UNK     1      48.277   3.837   8.201  1.00  0.00     0.001 A 
ATOM     38  C18 UNK     1      46.949   3.867   8.627  1.00  0.00     0.014 A 
ENDBRANCH  10  33
TORSDOF 10
ENDMDL
MODEL 6
REMARK VINA RESULT:      -6.9     16.774     20.120
REMARK  10 active torsions:
REMARK  status: ('A' for Active; 'I' for Inactive)
REMARK    1  A    between atoms: O2_2  and  C4_15 
REMARK    2  A    between atoms: O2_2  and  C7_18 
REMARK    3  A    between atoms: O3_3  and  C1_12 
REMARK    4  A    between atoms: O4_4  and  C2_13 
REMARK    5  A    between atoms: O5_5  and  C3_14 
REMARK    6  A    between atoms: O6_6  and  C6_17 
REMARK    7  A    between atoms: O9_9  and  C9_20 
REMARK    8  A    between atoms: O10_10  and  C12_23 
REMARK    9  A    between atoms: C5_16  and  C6_17 
REMARK   10  A    between atoms: C14_25  and  C16_27 
ROOT
ATOM      1  O8  UNK     1      44.328   2.555   7.974  1.00  0.00    -0.309 OA
ATOM      2  O11 UNK     1      42.898   5.520  10.375  1.00  0.00    -0.287 OA
ATOM      3  C7  UNK     1      40.822   1.566   8.063  1.00  0.00     0.110 A 
ATOM      4  C8  UNK     1      42.186   1.583   7.770  1.00  0.00     0.078 A 
ATOM      5  C9  UNK     1      40.268   2.554   8.878  1.00  0.00     0.134 A 
ATOM      6  C10 UNK     1      42.996   2.591   8.296  1.00  0.00     0.096 A 
ATOM      7  C11 UNK     1      42.440   3.576   9.110  1.00  0.00     0.084 A 
ATOM      8  C12 UNK     1      41.074   3.563   9.405  1.00  0.00     0.118 A 
ATOM      9  C13 UNK     1      43.317   4.626   9.652  1.00  0.00     0.190 A 
ATOM     10  C14 UNK     1      45.156   3.548   8.476  1.00  0.00     0.090 A 
ATOM     11  C15 UNK     1      44.742   4.545   9.273  1.00  0.00     0.094 A 
ENDROOT
BRANCH   3  12
ATOM     12  O2  UNK     1      40.039   0.577   7.544  1.00  0.00    -0.315 OA
BRANCH  12  13
ATOM     13  C4  UNK     1      39.574  -0.416   8.459  1.00  0.00     0.299 C 
ATOM     14  O1  UNK     1      40.636  -0.807   9.326  1.00  0.00    -0.340 OA
ATOM     15  C5  UNK     1      40.226  -1.782  10.278  1.00  0.00     0.253 C 
ATOM     16  C3  UNK     1      39.781  -3.067   9.589  1.00  0.00     0.189 C 
ATOM     17  C1  UNK     1      38.693  -2.779   8.555  1.00  0.00     0.183 C 
ATOM     18  C2  UNK     1      39.083  -1.614   7.645  1.00  0.00     0.205 C 
BRANCH  15  19
ATOM     19  C6  UNK     1      41.460  -2.009  11.089  1.00  0.00     0.172 C 
ATOM     20  O7  UNK     1      41.932  -1.213  11.887  1.00  0.00    -0.648 OA
BRANCH  19  21
ATOM     21  O6  UNK     1      41.992  -3.226  10.820  1.00  0.00    -0.774 OA
ATOM     22  H10 UNK     1      42.007  -3.804  11.612  1.00  0.00     0.167 HD
ENDBRANCH  19  21
ENDBRANCH  15  19
BRANCH  16  23
ATOM     23  O5  UNK     1      39.263  -3.958  10.575  1.00  0.00    -0.390 OA
ATOM     24  H8  UNK     1      38.562  -3.494  11.064  1.00  0.00     0.210 HD
ENDBRANCH  16  23
BRANCH  17  25
ATOM     25  O3  UNK     1      38.507  -3.957   7.769  1.00  0.00    -0.390 OA
ATOM     26  H6  UNK     1      37.576  -4.222   7.848  1.00  0.00     0.210 HD
ENDBRANCH  17  25
BRANCH  18  27
ATOM     27  O4  UNK     1      37.945  -1.204   6.887  1.00  0.00    -0.388 OA
ATOM     28  H7  UNK     1      37.534  -0.457   7.353  1.00  0.00     0.210 HD
ENDBRANCH  18  27
ENDBRANCH  12  13
ENDBRANCH   3  12
BRANCH   5  29
ATOM     29  O9  UNK     1      38.932   2.530   9.159  1.00  0.00    -0.356 OA
ATOM     30  H12 UNK     1      38.441   2.657   8.329  1.00  0.00     0.218 HD
ENDBRANCH   5  29
BRANCH   8  31
ATOM     31  O10 UNK     1      40.497   4.510  10.197  1.00  0.00    -0.357 OA
ATOM     32  H13 UNK     1      40.307   4.152  11.078  1.00  0.00     0.217 HD
ENDBRANCH   8  31
BRANCH  10  33
ATOM     33  C16 UNK     1      46.570   3.412   8.072  1.00  0.00    -0.002 A 
ATOM     34  C17 UNK     1      47.574   4.049   8.807  1.00  0.00     0.014 A 
ATOM     35  C19 UNK     1      48.910   3.918   8.426  1.00  0.00     0.001 A 
ATOM     36  C21 UNK     1      49.246   3.151   7.311  1.00  0.00     0.000 A 
ATOM     37  C20 UNK     1      48.246   2.514   6.575  1.00  0.00     0.001 A 
ATOM     38  C18 UNK     1      46.911   2.644   6.956  1.00  0.00     0.014 A 
ENDBRANCH  10  33
TORSDOF 10
ENDMDL
MODEL 7
REMARK VINA RESULT:      -6.8     15.419     18.545
REMARK  10 active torsions:
REMARK  status: ('A' for Active; 'I' for Inactive)
REMARK    1  A    between atoms: O2_2  and  C4_15 
REMARK    2  A    between atoms: O2_2  and  C7_18 
REMARK    3  A    between atoms: O3_3  and  C1_12 
REMARK    4  A    between atoms: O4_4  and  C2_13 
REMARK    5  A    between atoms: O5_5  and  C3_14 
REMARK    6  A    between atoms: O6_6  and  C6_17 
REMARK    7  A    between atoms: O9_9  and  C9_20 
REMARK    8  A    between atoms: O10_10  and  C12_23 
REMARK    9  A    between atoms: C5_16  and  C6_17 
REMARK   10  A    between atoms: C14_25  and  C16_27 
ROOT
ATOM      1  O8  UNK     1      43.655   0.898   8.545  1.00  0.00    -0.309 OA
ATOM      2  O11 UNK     1      41.874   4.352   9.767  1.00  0.00    -0.287 OA
ATOM      3  C7  UNK     1      40.318  -0.399   9.223  1.00  0.00     0.110 A 
ATOM      4  C8  UNK     1      41.662  -0.330   8.856  1.00  0.00     0.078 A 
ATOM      5  C9  UNK     1      39.648   0.748   9.649  1.00  0.00     0.134 A 
ATOM      6  C10 UNK     1      42.335   0.891   8.917  1.00  0.00     0.096 A 
ATOM      7  C11 UNK     1      41.664   2.036   9.344  1.00  0.00     0.084 A 
ATOM      8  C12 UNK     1      40.318   1.970   9.712  1.00  0.00     0.118 A 
ATOM      9  C13 UNK     1      42.399   3.309   9.400  1.00  0.00     0.190 A 
ATOM     10  C14 UNK     1      44.348   2.098   8.588  1.00  0.00     0.090 A 
ATOM     11  C15 UNK     1      43.815   3.264   8.986  1.00  0.00     0.094 A 
ENDROOT
BRANCH   3  12
ATOM     12  O2  UNK     1      39.669  -1.597   9.159  1.00  0.00    -0.315 OA
BRANCH  12  13
ATOM     13  C4  UNK     1      38.719  -1.754   8.104  1.00  0.00     0.299 C 
ATOM     14  O1  UNK     1      37.417  -1.944   8.654  1.00  0.00    -0.340 OA
ATOM     15  C5  UNK     1      36.420  -2.085   7.648  1.00  0.00     0.253 C 
ATOM     16  C3  UNK     1      36.676  -3.321   6.793  1.00  0.00     0.189 C 
ATOM     17  C1  UNK     1      38.087  -3.291   6.206  1.00  0.00     0.183 C 
ATOM     18  C2  UNK     1      39.130  -2.972   7.277  1.00  0.00     0.205 C 
BRANCH  15  19
ATOM     19  C6  UNK     1      35.158  -2.230   8.433  1.00  0.00     0.172 C 
ATOM     20  O7  UNK     1      34.523  -1.305   8.918  1.00  0.00    -0.648 OA
BRANCH  19  21
ATOM     21  O6  UNK     1      34.807  -3.534   8.540  1.00  0.00    -0.774 OA
ATOM     22  H10 UNK     1      34.286  -3.709   9.352  1.00  0.00     0.167 HD
ENDBRANCH  19  21
ENDBRANCH  15  19
BRANCH  16  23
ATOM     23  O5  UNK     1      35.728  -3.344   5.727  1.00  0.00    -0.390 OA
ATOM     24  H8  UNK     1      36.216  -3.287   4.888  1.00  0.00     0.210 HD
ENDBRANCH  16  23
BRANCH  17  25
ATOM     25  O3  UNK     1      38.359  -4.576   5.643  1.00  0.00    -0.390 OA
ATOM     26  H6  UNK     1      38.345  -5.224   6.366  1.00  0.00     0.210 HD
ENDBRANCH  17  25
BRANCH  18  27
ATOM     27  O4  UNK     1      40.381  -2.686   6.650  1.00  0.00    -0.388 OA
ATOM     28  H7  UNK     1      40.729  -1.870   7.046  1.00  0.00     0.210 HD
ENDBRANCH  18  27
ENDBRANCH  12  13
ENDBRANCH   3  12
BRANCH   5  29
ATOM     29  O9  UNK     1      38.333   0.671  10.007  1.00  0.00    -0.356 OA
ATOM     30  H12 UNK     1      38.164  -0.214  10.373  1.00  0.00     0.218 HD
ENDBRANCH   5  29
BRANCH   8  31
ATOM     31  O10 UNK     1      39.630   3.068  10.133  1.00  0.00    -0.357 OA
ATOM     32  H13 UNK     1      39.667   3.773   9.470  1.00  0.00     0.217 HD
ENDBRANCH   8  31
BRANCH  10  33
ATOM     33  C16 UNK     1      45.761   1.991   8.172  1.00  0.00    -0.002 A 
ATOM     34  C17 UNK     1      46.215   2.682   7.045  1.00  0.00     0.014 A 
ATOM     35  C19 UNK     1      47.550   2.581   6.653  1.00  0.00     0.001 A 
ATOM     36  C21 UNK     1      48.435   1.791   7.385  1.00  0.00     0.000 A 
ATOM     37  C20 UNK     1      47.986   1.100   8.511  1.00  0.00     0.001 A 
ATOM     38  C18 UNK     1      46.651   1.200   8.903  1.00  0.00     0.014 A 
ENDBRANCH  10  33
TORSDOF 10
ENDMDL
MODEL 8
REMARK VINA RESULT:      -6.8     16.743     19.948
REMARK  10 active torsions:
REMARK  status: ('A' for Active; 'I' for Inactive)
REMARK    1  A    between atoms: O2_2  and  C4_15 
REMARK    2  A    between atoms: O2_2  and  C7_18 
REMARK    3  A    between atoms: O3_3  and  C1_12 
REMARK    4  A    between atoms: O4_4  and  C2_13 
REMARK    5  A    between atoms: O5_5  and  C3_14 
REMARK    6  A    between atoms: O6_6  and  C6_17 
REMARK    7  A    between atoms: O9_9  and  C9_20 
REMARK    8  A    between atoms: O10_10  and  C12_23 
REMARK    9  A    between atoms: C5_16  and  C6_17 
REMARK   10  A    between atoms: C14_25  and  C16_27 
ROOT
ATOM      1  O8  UNK     1      45.356   2.581   8.841  1.00  0.00    -0.309 OA
ATOM      2  O11 UNK     1      43.376   5.936  10.033  1.00  0.00    -0.287 OA
ATOM      3  C7  UNK     1      42.187   1.055   9.793  1.00  0.00     0.110 A 
ATOM      4  C8  UNK     1      43.495   1.215   9.335  1.00  0.00     0.078 A 
ATOM      5  C9  UNK     1      41.453   2.165  10.215  1.00  0.00     0.134 A 
ATOM      6  C10 UNK     1      44.068   2.487   9.300  1.00  0.00     0.096 A 
ATOM      7  C11 UNK     1      43.332   3.593   9.722  1.00  0.00     0.084 A 
ATOM      8  C12 UNK     1      42.022   3.438  10.181  1.00  0.00     0.118 A 
ATOM      9  C13 UNK     1      43.961   4.922   9.676  1.00  0.00     0.190 A 
ATOM     10  C14 UNK     1      45.949   3.834   8.787  1.00  0.00     0.090 A 
ATOM     11  C15 UNK     1      45.347   4.971   9.170  1.00  0.00     0.094 A 
ENDROOT
BRANCH   3  12
ATOM     12  O2  UNK     1      41.637  -0.192   9.823  1.00  0.00    -0.315 OA
BRANCH  12  13
ATOM     13  C4  UNK     1      41.021  -0.649   8.618  1.00  0.00     0.299 C 
ATOM     14  O1  UNK     1      39.863   0.135   8.343  1.00  0.00    -0.340 OA
ATOM     15  C5  UNK     1      39.216  -0.259   7.138  1.00  0.00     0.253 C 
ATOM     16  C3  UNK     1      38.713  -1.694   7.231  1.00  0.00     0.189 C 
ATOM     17  C1  UNK     1      39.848  -2.644   7.613  1.00  0.00     0.183 C 
ATOM     18  C2  UNK     1      40.637  -2.116   8.811  1.00  0.00     0.205 C 
BRANCH  15  19
ATOM     19  C6  UNK     1      38.077   0.702   7.029  1.00  0.00     0.172 C 
ATOM     20  O7  UNK     1      37.070   0.677   7.720  1.00  0.00    -0.648 OA
BRANCH  19  21
ATOM     21  O6  UNK     1      38.310   1.611   6.051  1.00  0.00    -0.774 OA
ATOM     22  H10 UNK     1      37.527   1.737   5.474  1.00  0.00     0.167 HD
ENDBRANCH  19  21
ENDBRANCH  15  19
BRANCH  16  23
ATOM     23  O5  UNK     1      38.190  -2.079   5.961  1.00  0.00    -0.390 OA
ATOM     24  H8  UNK     1      38.773  -2.764   5.590  1.00  0.00     0.210 HD
ENDBRANCH  16  23
BRANCH  17  25
ATOM     25  O3  UNK     1      39.275  -3.910   7.940  1.00  0.00    -0.390 OA
ATOM     26  H6  UNK     1      39.796  -4.292   8.666  1.00  0.00     0.210 HD
ENDBRANCH  17  25
BRANCH  18  27
ATOM     27  O4  UNK     1      41.837  -2.876   8.961  1.00  0.00    -0.388 OA
ATOM     28  H7  UNK     1      42.586  -2.276   8.815  1.00  0.00     0.210 HD
ENDBRANCH  18  27
ENDBRANCH  12  13
ENDBRANCH   3  12
BRANCH   5  29
ATOM     29  O9  UNK     1      40.173   2.000  10.662  1.00  0.00    -0.356 OA
ATOM     30  H12 UNK     1      39.618   2.696  10.269  1.00  0.00     0.218 HD
ENDBRANCH   5  29
BRANCH   8  31
ATOM     31  O10 UNK     1      41.273   4.496  10.602  1.00  0.00    -0.357 OA
ATOM     32  H13 UNK     1      41.262   4.546  11.570  1.00  0.00     0.217 HD
ENDBRANCH   8  31
BRANCH  10  33
ATOM     33  C16 UNK     1      47.337   3.820   8.282  1.00  0.00    -0.002 A 
ATOM     34  C17 UNK     1      48.327   4.562   8.933  1.00  0.00     0.014 A 
ATOM     35  C19 UNK     1      49.638   4.548   8.456  1.00  0.00     0.001 A 
ATOM     36  C21 UNK     1      49.964   3.793   7.330  1.00  0.00     0.000 A 
ATOM     37  C20 UNK     1      48.978   3.052   6.678  1.00  0.00     0.001 A 
ATOM     38  C18 UNK     1      47.666   3.066   7.155  1.00  0.00     0.014 A 
ENDBRANCH  10  33
TORSDOF 10
ENDMDL
MODEL 9
REMARK VINA RESULT:      -6.7     17.380     20.440
REMARK  10 active torsions:
REMARK  status: ('A' for Active; 'I' for Inactive)
REMARK    1  A    between atoms: O2_2  and  C4_15 
REMARK    2  A    between atoms: O2_2  and  C7_18 
REMARK    3  A    between atoms: O3_3  and  C1_12 
REMARK    4  A    between atoms: O4_4  and  C2_13 
REMARK    5  A    between atoms: O5_5  and  C3_14 
REMARK    6  A    between atoms: O6_6  and  C6_17 
REMARK    7  A    between atoms: O9_9  and  C9_20 
REMARK    8  A    between atoms: O10_10  and  C12_23 
REMARK    9  A    between atoms: C5_16  and  C6_17 
REMARK   10  A    between atoms: C14_25  and  C16_27 
ROOT
ATOM      1  O8  UNK     1      45.246   3.299   9.280  1.00  0.00    -0.309 OA
ATOM      2  O11 UNK     1      43.657   7.046   9.474  1.00  0.00    -0.287 OA
ATOM      3  C7  UNK     1      41.781   2.406   9.971  1.00  0.00     0.110 A 
ATOM      4  C8  UNK     1      43.148   2.305   9.712  1.00  0.00     0.078 A 
ATOM      5  C9  UNK     1      41.174   3.660  10.050  1.00  0.00     0.134 A 
ATOM      6  C10 UNK     1      43.908   3.462   9.531  1.00  0.00     0.096 A 
ATOM      7  C11 UNK     1      43.299   4.713   9.610  1.00  0.00     0.084 A 
ATOM      8  C12 UNK     1      41.931   4.818   9.869  1.00  0.00     0.118 A 
ATOM      9  C13 UNK     1      44.124   5.916   9.416  1.00  0.00     0.190 A 
ATOM     10  C14 UNK     1      46.024   4.430   9.088  1.00  0.00     0.090 A 
ATOM     11  C15 UNK     1      45.557   5.687   9.145  1.00  0.00     0.094 A 
ENDROOT
BRANCH   3  12
ATOM     12  O2  UNK     1      41.048   1.269  10.147  1.00  0.00    -0.315 OA
BRANCH  12  13
ATOM     13  C4  UNK     1      40.433   0.719   8.981  1.00  0.00     0.299 C 
ATOM     14  O1  UNK     1      39.016   0.733   9.132  1.00  0.00    -0.340 OA
ATOM     15  C5  UNK     1      38.345   0.215   7.989  1.00  0.00     0.253 C 
ATOM     16  C3  UNK     1      38.706  -1.247   7.758  1.00  0.00     0.189 C 
ATOM     17  C1  UNK     1      40.222  -1.423   7.664  1.00  0.00     0.183 C 
ATOM     18  C2  UNK     1      40.937  -0.715   8.815  1.00  0.00     0.205 C 
BRANCH  15  19
ATOM     19  C6  UNK     1      36.901   0.360   8.344  1.00  0.00     0.172 C 
ATOM     20  O7  UNK     1      36.475   0.629   9.458  1.00  0.00    -0.648 OA
BRANCH  19  21
ATOM     21  O6  UNK     1      36.117   0.148   7.259  1.00  0.00    -0.774 OA
ATOM     22  H10 UNK     1      35.408   0.821   7.181  1.00  0.00     0.167 HD
ENDBRANCH  19  21
ENDBRANCH  15  19
BRANCH  16  23
ATOM     23  O5  UNK     1      38.110  -1.677   6.534  1.00  0.00    -0.390 OA
ATOM     24  H8  UNK     1      37.639  -2.510   6.705  1.00  0.00     0.210 HD
ENDBRANCH  16  23
BRANCH  17  25
ATOM     25  O3  UNK     1      40.509  -2.821   7.712  1.00  0.00    -0.390 OA
ATOM     26  H6  UNK     1      39.692  -3.282   7.964  1.00  0.00     0.210 HD
ENDBRANCH  17  25
BRANCH  18  27
ATOM     27  O4  UNK     1      42.338  -0.669   8.544  1.00  0.00    -0.388 OA
ATOM     28  H7  UNK     1      42.771  -1.321   9.119  1.00  0.00     0.210 HD
ENDBRANCH  18  27
ENDBRANCH  12  13
ENDBRANCH   3  12
BRANCH   5  29
ATOM     29  O9  UNK     1      39.836   3.751  10.304  1.00  0.00    -0.356 OA
ATOM     30  H12 UNK     1      39.376   3.939   9.467  1.00  0.00     0.218 HD
ENDBRANCH   5  29
BRANCH   8  31
ATOM     31  O10 UNK     1      41.302   6.025   9.953  1.00  0.00    -0.357 OA
ATOM     32  H13 UNK     1      41.783   6.699   9.450  1.00  0.00     0.217 HD
ENDBRANCH   8  31
BRANCH  10  33
ATOM     33  C16 UNK     1      47.450   4.142   8.829  1.00  0.00    -0.002 A 
ATOM     34  C17 UNK     1      48.426   5.091   9.143  1.00  0.00     0.014 A 
ATOM     35  C19 UNK     1      49.772   4.818   8.899  1.00  0.00     0.001 A 
ATOM     36  C21 UNK     1      50.147   3.595   8.343  1.00  0.00     0.000 A 
ATOM     37  C20 UNK     1      49.175   2.645   8.028  1.00  0.00     0.001 A 
ATOM     38  C18 UNK     1      47.828   2.918   8.272  1.00  0.00     0.014 A 
ENDBRANCH  10  33
TORSDOF 10
ENDMDL
MODEL 10
REMARK VINA RESULT:      -6.6     13.419     17.370
REMARK  10 active torsions:
REMARK  status: ('A' for Active; 'I' for Inactive)
REMARK    1  A    between atoms: O2_2  and  C4_15 
REMARK    2  A    between atoms: O2_2  and  C7_18 
REMARK    3  A    between atoms: O3_3  and  C1_12 
REMARK    4  A    between atoms: O4_4  and  C2_13 
REMARK    5  A    between atoms: O5_5  and  C3_14 
REMARK    6  A    between atoms: O6_6  and  C6_17 
REMARK    7  A    between atoms: O9_9  and  C9_20 
REMARK    8  A    between atoms: O10_10  and  C12_23 
REMARK    9  A    between atoms: C5_16  and  C6_17 
REMARK   10  A    between atoms: C14_25  and  C16_27 
ROOT
ATOM      1  O8  UNK     1      37.939  -5.372   5.255  1.00  0.00    -0.309 OA
ATOM      2  O11 UNK     1      34.069  -4.322   5.978  1.00  0.00    -0.287 OA
ATOM      3  C7  UNK     1      38.531  -2.363   7.223  1.00  0.00     0.110 A 
ATOM      4  C8  UNK     1      38.749  -3.514   6.466  1.00  0.00     0.078 A 
ATOM      5  C9  UNK     1      37.229  -1.948   7.508  1.00  0.00     0.134 A 
ATOM      6  C10 UNK     1      37.662  -4.251   5.994  1.00  0.00     0.096 A 
ATOM      7  C11 UNK     1      36.363  -3.835   6.280  1.00  0.00     0.084 A 
ATOM      8  C12 UNK     1      36.140  -2.683   7.037  1.00  0.00     0.118 A 
ATOM      9  C13 UNK     1      35.235  -4.629   5.768  1.00  0.00     0.190 A 
ATOM     10  C14 UNK     1      36.878  -6.128   4.779  1.00  0.00     0.090 A 
ATOM     11  C15 UNK     1      35.586  -5.829   4.982  1.00  0.00     0.094 A 
ENDROOT
BRANCH   3  12
ATOM     12  O2  UNK     1      39.600  -1.650   7.679  1.00  0.00    -0.315 OA
BRANCH  12  13
ATOM     13  C4  UNK     1      40.220  -2.124   8.875  1.00  0.00     0.299 C 
ATOM     14  O1  UNK     1      39.221  -2.481   9.827  1.00  0.00    -0.340 OA
ATOM     15  C5  UNK     1      39.780  -2.983  11.036  1.00  0.00     0.253 C 
ATOM     16  C3  UNK     1      40.629  -1.923  11.728  1.00  0.00     0.189 C 
ATOM     17  C1  UNK     1      41.699  -1.382  10.781  1.00  0.00     0.183 C 
ATOM     18  C2  UNK     1      41.103  -1.003   9.425  1.00  0.00     0.205 C 
BRANCH  15  19
ATOM     19  C6  UNK     1      38.577  -3.323  11.854  1.00  0.00     0.172 C 
ATOM     20  O7  UNK     1      38.547  -3.364  13.076  1.00  0.00    -0.648 OA
BRANCH  19  21
ATOM     21  O6  UNK     1      37.514  -3.587  11.056  1.00  0.00    -0.774 OA
ATOM     22  H10 UNK     1      37.051  -2.768  10.778  1.00  0.00     0.167 HD
ENDBRANCH  19  21
ENDBRANCH  15  19
BRANCH  16  23
ATOM     23  O5  UNK     1      41.264  -2.515  12.860  1.00  0.00    -0.390 OA
ATOM     24  H8  UNK     1      42.085  -2.941  12.557  1.00  0.00     0.210 HD
ENDBRANCH  16  23
BRANCH  17  25
ATOM     25  O3  UNK     1      42.282  -0.226  11.385  1.00  0.00    -0.390 OA
ATOM     26  H6  UNK     1      41.947   0.554  10.914  1.00  0.00     0.210 HD
ENDBRANCH  17  25
BRANCH  18  27
ATOM     27  O4  UNK     1      42.159  -0.767   8.493  1.00  0.00    -0.388 OA
ATOM     28  H7  UNK     1      42.884  -0.335   8.973  1.00  0.00     0.210 HD
ENDBRANCH  18  27
ENDBRANCH  12  13
ENDBRANCH   3  12
BRANCH   5  29
ATOM     29  O9  UNK     1      37.023  -0.821   8.249  1.00  0.00    -0.356 OA
ATOM     30  H12 UNK     1      37.621  -0.125   7.923  1.00  0.00     0.218 HD
ENDBRANCH   5  29
BRANCH   8  31
ATOM     31  O10 UNK     1      34.883  -2.246   7.336  1.00  0.00    -0.357 OA
ATOM     32  H13 UNK     1      34.860  -1.279   7.395  1.00  0.00     0.217 HD
ENDBRANCH   8  31
BRANCH  10  33
ATOM     33  C16 UNK     1      37.288  -7.310   3.993  1.00  0.00    -0.002 A 
ATOM     34  C17 UNK     1      38.553  -7.874   4.182  1.00  0.00     0.014 A 
ATOM     35  C19 UNK     1      38.940  -8.990   3.441  1.00  0.00     0.001 A 
ATOM     36  C21 UNK     1      38.064  -9.547   2.509  1.00  0.00     0.000 A 
ATOM     37  C20 UNK     1      36.801  -8.987   2.318  1.00  0.00     0.001 A 
ATOM     38  C18 UNK     1      36.414  -7.870   3.059  1.00  0.00     0.014 A 
ENDBRANCH  10  33
TORSDOF 10
ENDMDL
MODEL 11
REMARK VINA RESULT:      -6.6     18.099     21.363
REMARK  10 active torsions:
REMARK  status: ('A' for Active; 'I' for Inactive)
REMARK    1  A    between atoms: O2_2  and  C4_15 
REMARK    2  A    between atoms: O2_2  and  C7_18 
REMARK    3  A    between atoms: O3_3  and  C1_12 
REMARK    4  A    between atoms: O4_4  and  C2_13 
REMARK    5  A    between atoms: O5_5  and  C3_14 
REMARK    6  A    between atoms: O6_6  and  C6_17 
REMARK    7  A    between atoms: O9_9  and  C9_20 
REMARK    8  A    between atoms: O10_10  and  C12_23 
REMARK    9  A    between atoms: C5_16  and  C6_17 
REMARK   10  A    between atoms: C14_25  and  C16_27 
ROOT
ATOM      1  O8  UNK     1      42.835   4.648  10.609  1.00  0.00    -0.309 OA
ATOM      2  O11 UNK     1      46.683   4.191   9.348  1.00  0.00    -0.287 OA
ATOM      3  C7  UNK     1      42.253   2.350   7.841  1.00  0.00     0.110 A 
ATOM      4  C8  UNK     1      42.033   3.191   8.932  1.00  0.00     0.078 A 
ATOM      5  C9  UNK     1      43.547   2.149   7.360  1.00  0.00     0.134 A 
ATOM      6  C10 UNK     1      43.113   3.832   9.542  1.00  0.00     0.096 A 
ATOM      7  C11 UNK     1      44.405   3.631   9.059  1.00  0.00     0.084 A 
ATOM      8  C12 UNK     1      44.628   2.788   7.967  1.00  0.00     0.118 A 
ATOM      9  C13 UNK     1      45.524   4.320   9.720  1.00  0.00     0.190 A 
ATOM     10  C14 UNK     1      43.889   5.292  11.239  1.00  0.00     0.090 A 
ATOM     11  C15 UNK     1      45.173   5.183  10.866  1.00  0.00     0.094 A 
ENDROOT
BRANCH   3  12
ATOM     12  O2  UNK     1      41.191   1.728   7.253  1.00  0.00    -0.315 OA
BRANCH  12  13
ATOM     13  C4  UNK     1      40.423   0.854   8.080  1.00  0.00     0.299 C 
ATOM     14  O1  UNK     1      41.238  -0.229   8.523  1.00  0.00    -0.340 OA
ATOM     15  C5  UNK     1      40.531  -1.125   9.374  1.00  0.00     0.253 C 
ATOM     16  C3  UNK     1      39.368  -1.778   8.636  1.00  0.00     0.189 C 
ATOM     17  C1  UNK     1      38.450  -0.719   8.026  1.00  0.00     0.183 C 
ATOM     18  C2  UNK     1      39.248   0.332   7.253  1.00  0.00     0.205 C 
BRANCH  15  19
ATOM     19  C6  UNK     1      41.567  -2.137   9.742  1.00  0.00     0.172 C 
ATOM     20  O7  UNK     1      41.334  -3.239  10.216  1.00  0.00    -0.648 OA
BRANCH  19  21
ATOM     21  O6  UNK     1      42.810  -1.666   9.482  1.00  0.00    -0.774 OA
ATOM     22  H10 UNK     1      42.786  -0.812   9.000  1.00  0.00     0.167 HD
ENDBRANCH  19  21
ENDBRANCH  15  19
BRANCH  16  23
ATOM     23  O5  UNK     1      38.622  -2.564   9.563  1.00  0.00    -0.390 OA
ATOM     24  H8  UNK     1      37.676  -2.425   9.384  1.00  0.00     0.210 HD
ENDBRANCH  16  23
BRANCH  17  25
ATOM     25  O3  UNK     1      37.544  -1.377   7.139  1.00  0.00    -0.390 OA
ATOM     26  H6  UNK     1      38.007  -2.140   6.756  1.00  0.00     0.210 HD
ENDBRANCH  17  25
BRANCH  18  27
ATOM     27  O4  UNK     1      38.397   1.435   6.938  1.00  0.00    -0.388 OA
ATOM     28  H7  UNK     1      38.404   2.038   7.699  1.00  0.00     0.210 HD
ENDBRANCH  18  27
ENDBRANCH  12  13
ENDBRANCH   3  12
BRANCH   5  29
ATOM     29  O9  UNK     1      43.753   1.324   6.292  1.00  0.00    -0.356 OA
ATOM     30  H12 UNK     1      42.910   1.216   5.820  1.00  0.00     0.218 HD
ENDBRANCH   5  29
BRANCH   8  31
ATOM     31  O10 UNK     1      45.878   2.568   7.469  1.00  0.00    -0.357 OA
ATOM     32  H13 UNK     1      46.363   1.939   8.025  1.00  0.00     0.217 HD
ENDBRANCH   8  31
BRANCH  10  33
ATOM     33  C16 UNK     1      43.478   6.147  12.371  1.00  0.00    -0.002 A 
ATOM     34  C17 UNK     1      43.164   7.492  12.157  1.00  0.00     0.014 A 
ATOM     35  C19 UNK     1      42.775   8.299  13.226  1.00  0.00     0.001 A 
ATOM     36  C21 UNK     1      42.699   7.765  14.512  1.00  0.00     0.000 A 
ATOM     37  C20 UNK     1      43.012   6.423  14.730  1.00  0.00     0.001 A 
ATOM     38  C18 UNK     1      43.401   5.616  13.660  1.00  0.00     0.014 A 
ENDBRANCH  10  33
TORSDOF 10
ENDMDL
MODEL 12
REMARK VINA RESULT:      -6.6     18.554     21.217
REMARK  10 active torsions:
REMARK  status: ('A' for Active; 'I' for Inactive)
REMARK    1  A    between atoms: O2_2  and  C4_15 
REMARK    2  A    between atoms: O2_2  and  C7_18 
REMARK    3  A    between atoms: O3_3  and  C1_12 
REMARK    4  A    between atoms: O4_4  and  C2_13 
REMARK    5  A    between atoms: O5_5  and  C3_14 
REMARK    6  A    between atoms: O6_6  and  C6_17 
REMARK    7  A    between atoms: O9_9  and  C9_20 
REMARK    8  A    between atoms: O10_10  and  C12_23 
REMARK    9  A    between atoms: C5_16  and  C6_17 
REMARK   10  A    between atoms: C14_25  and  C16_27 
ROOT
ATOM      1  O8  UNK     1      44.549   9.788  -9.371  1.00  0.00    -0.309 OA
ATOM      2  O11 UNK     1      44.742  12.487 -12.418  1.00  0.00    -0.287 OA
ATOM      3  C7  UNK     1      47.897  11.089  -8.759  1.00  0.00     0.110 A 
ATOM      4  C8  UNK     1      46.723  10.346  -8.638  1.00  0.00     0.078 A 
ATOM      5  C9  UNK     1      48.027  12.032  -9.781  1.00  0.00     0.134 A 
ATOM      6  C10 UNK     1      45.677  10.548  -9.541  1.00  0.00     0.096 A 
ATOM      7  C11 UNK     1      45.810  11.489 -10.560  1.00  0.00     0.084 A 
ATOM      8  C12 UNK     1      46.985  12.235 -10.685  1.00  0.00     0.118 A 
ATOM      9  C13 UNK     1      44.694  11.680 -11.498  1.00  0.00     0.190 A 
ATOM     10  C14 UNK     1      43.491   9.972 -10.249  1.00  0.00     0.090 A 
ATOM     11  C15 UNK     1      43.500  10.841 -11.271  1.00  0.00     0.094 A 
ENDROOT
BRANCH   3  12
ATOM     12  O2  UNK     1      48.913  10.885  -7.872  1.00  0.00    -0.315 OA
BRANCH  12  13
ATOM     13  C4  UNK     1      48.646  11.214  -6.508  1.00  0.00     0.299 C 
ATOM     14  O1  UNK     1      49.097  12.539  -6.236  1.00  0.00    -0.340 OA
ATOM     15  C5  UNK     1      48.837  12.934  -4.893  1.00  0.00     0.253 C 
ATOM     16  C3  UNK     1      49.588  12.047  -3.907  1.00  0.00     0.189 C 
ATOM     17  C1  UNK     1      49.261  10.573  -4.147  1.00  0.00     0.183 C 
ATOM     18  C2  UNK     1      49.385  10.208  -5.626  1.00  0.00     0.205 C 
BRANCH  15  19
ATOM     19  C6  UNK     1      49.346  14.338  -4.844  1.00  0.00     0.172 C 
ATOM     20  O7  UNK     1      48.646  15.339  -4.874  1.00  0.00    -0.648 OA
BRANCH  19  21
ATOM     21  O6  UNK     1      50.699  14.354  -4.765  1.00  0.00    -0.774 OA
ATOM     22  H10 UNK     1      51.091  15.056  -5.328  1.00  0.00     0.167 HD
ENDBRANCH  19  21
ENDBRANCH  15  19
BRANCH  16  23
ATOM     23  O5  UNK     1      49.194  12.401  -2.582  1.00  0.00    -0.390 OA
ATOM     24  H8  UNK     1      49.838  13.044  -2.238  1.00  0.00     0.210 HD
ENDBRANCH  16  23
BRANCH  17  25
ATOM     25  O3  UNK     1      50.178   9.787  -3.384  1.00  0.00    -0.390 OA
ATOM     26  H6  UNK     1      50.939   9.584  -3.953  1.00  0.00     0.210 HD
ENDBRANCH  17  25
BRANCH  18  27
ATOM     27  O4  UNK     1      48.815   8.917  -5.845  1.00  0.00    -0.388 OA
ATOM     28  H7  UNK     1      49.136   8.595  -6.704  1.00  0.00     0.210 HD
ENDBRANCH  18  27
ENDBRANCH  12  13
ENDBRANCH   3  12
BRANCH   5  29
ATOM     29  O9  UNK     1      49.180  12.754  -9.893  1.00  0.00    -0.356 OA
ATOM     30  H12 UNK     1      49.814  12.242 -10.425  1.00  0.00     0.218 HD
ENDBRANCH   5  29
BRANCH   8  31
ATOM     31  O10 UNK     1      47.149  13.164 -11.668  1.00  0.00    -0.357 OA
ATOM     32  H13 UNK     1      48.083  13.409 -11.757  1.00  0.00     0.217 HD
ENDBRANCH   8  31
BRANCH  10  33
ATOM     33  C16 UNK     1      42.329   9.101  -9.979  1.00  0.00    -0.002 A 
ATOM     34  C17 UNK     1      42.515   7.735  -9.747  1.00  0.00     0.014 A 
ATOM     35  C19 UNK     1      41.417   6.913  -9.491  1.00  0.00     0.001 A 
ATOM     36  C21 UNK     1      40.131   7.453  -9.466  1.00  0.00     0.000 A 
ATOM     37  C20 UNK     1      39.942   8.816  -9.698  1.00  0.00     0.001 A 
ATOM     38  C18 UNK     1      41.040   9.638  -9.953  1.00  0.00     0.014 A 
ENDBRANCH  10  33
TORSDOF 10
ENDMDL
MODEL 13
REMARK VINA RESULT:      -6.6     12.890     16.402
REMARK  10 active torsions:
REMARK  status: ('A' for Active; 'I' for Inactive)
REMARK    1  A    between atoms: O2_2  and  C4_15 
REMARK    2  A    between atoms: O2_2  and  C7_18 
REMARK    3  A    between atoms: O3_3  and  C1_12 
REMARK    4  A    between atoms: O4_4  and  C2_13 
REMARK    5  A    between atoms: O5_5  and  C3_14 
REMARK    6  A    between atoms: O6_6  and  C6_17 
REMARK    7  A    between atoms: O9_9  and  C9_20 
REMARK    8  A    between atoms: O10_10  and  C12_23 
REMARK    9  A    between atoms: C5_16  and  C6_17 
REMARK   10  A    between atoms: C14_25  and  C16_27 
ROOT
ATOM      1  O8  UNK     1      37.016  -5.476   5.333  1.00  0.00    -0.309 OA
ATOM      2  O11 UNK     1      33.030  -6.012   5.988  1.00  0.00    -0.287 OA
ATOM      3  C7  UNK     1      36.336  -2.420   7.197  1.00  0.00     0.110 A 
ATOM      4  C8  UNK     1      37.005  -3.414   6.483  1.00  0.00     0.078 A 
ATOM      5  C9  UNK     1      34.970  -2.543   7.457  1.00  0.00     0.134 A 
ATOM      6  C10 UNK     1      36.305  -4.533   6.029  1.00  0.00     0.096 A 
ATOM      7  C11 UNK     1      34.941  -4.653   6.290  1.00  0.00     0.084 A 
ATOM      8  C12 UNK     1      34.267  -3.660   7.005  1.00  0.00     0.118 A 
ATOM      9  C13 UNK     1      34.227  -5.842   5.798  1.00  0.00     0.190 A 
ATOM     10  C14 UNK     1      36.348  -6.602   4.876  1.00  0.00     0.090 A 
ATOM     11  C15 UNK     1      35.038  -6.830   5.058  1.00  0.00     0.094 A 
ENDROOT
BRANCH   3  12
ATOM     12  O2  UNK     1      37.029  -1.331   7.636  1.00  0.00    -0.315 OA
BRANCH  12  13
ATOM     13  C4  UNK     1      38.450  -1.461   7.701  1.00  0.00     0.299 C 
ATOM     14  O1  UNK     1      38.814  -2.177   8.879  1.00  0.00    -0.340 OA
ATOM     15  C5  UNK     1      40.222  -2.358   8.988  1.00  0.00     0.253 C 
ATOM     16  C3  UNK     1      40.939  -1.019   9.099  1.00  0.00     0.189 C 
ATOM     17  C1  UNK     1      40.566  -0.105   7.932  1.00  0.00     0.183 C 
ATOM     18  C2  UNK     1      39.052  -0.055   7.725  1.00  0.00     0.205 C 
BRANCH  15  19
ATOM     19  C6  UNK     1      40.369  -3.150  10.246  1.00  0.00     0.172 C 
ATOM     20  O7  UNK     1      39.480  -3.345  11.062  1.00  0.00    -0.648 OA
BRANCH  19  21
ATOM     21  O6  UNK     1      41.632  -3.626  10.367  1.00  0.00    -0.774 OA
ATOM     22  H10 UNK     1      41.729  -4.517   9.968  1.00  0.00     0.167 HD
ENDBRANCH  19  21
ENDBRANCH  15  19
BRANCH  16  23
ATOM     23  O5  UNK     1      42.347  -1.251   9.077  1.00  0.00    -0.390 OA
ATOM     24  H8  UNK     1      42.681  -1.165   9.986  1.00  0.00     0.210 HD
ENDBRANCH  16  23
BRANCH  17  25
ATOM     25  O3  UNK     1      41.050   1.207   8.224  1.00  0.00    -0.390 OA
ATOM     26  H6  UNK     1      42.019   1.160   8.272  1.00  0.00     0.210 HD
ENDBRANCH  17  25
BRANCH  18  27
ATOM     27  O4  UNK     1      38.764   0.576   6.477  1.00  0.00    -0.388 OA
ATOM     28  H7  UNK     1      37.943   1.084   6.587  1.00  0.00     0.210 HD
ENDBRANCH  18  27
ENDBRANCH  12  13
ENDBRANCH   3  12
BRANCH   5  29
ATOM     29  O9  UNK     1      34.323  -1.566   8.156  1.00  0.00    -0.356 OA
ATOM     30  H12 UNK     1      34.361  -0.741   7.640  1.00  0.00     0.218 HD
ENDBRANCH   5  29
BRANCH   8  31
ATOM     31  O10 UNK     1      32.935  -3.744   7.278  1.00  0.00    -0.357 OA
ATOM     32  H13 UNK     1      32.654  -3.013   7.848  1.00  0.00     0.217 HD
ENDBRANCH   8  31
BRANCH  10  33
ATOM     33  C16 UNK     1      37.206  -7.550   4.135  1.00  0.00    -0.002 A 
ATOM     34  C17 UNK     1      38.556  -7.682   4.470  1.00  0.00     0.014 A 
ATOM     35  C19 UNK     1      39.366  -8.577   3.771  1.00  0.00     0.001 A 
ATOM     36  C21 UNK     1      38.829  -9.344   2.737  1.00  0.00     0.000 A 
ATOM     37  C20 UNK     1      37.481  -9.214   2.400  1.00  0.00     0.001 A 
ATOM     38  C18 UNK     1      36.672  -8.319   3.099  1.00  0.00     0.014 A 
ENDBRANCH  10  33
TORSDOF 10
ENDMDL
MODEL 14
REMARK VINA RESULT:      -6.5     16.004     19.106
REMARK  10 active torsions:
REMARK  status: ('A' for Active; 'I' for Inactive)
REMARK    1  A    between atoms: O2_2  and  C4_15 
REMARK    2  A    between atoms: O2_2  and  C7_18 
REMARK    3  A    between atoms: O3_3  and  C1_12 
REMARK    4  A    between atoms: O4_4  and  C2_13 
REMARK    5  A    between atoms: O5_5  and  C3_14 
REMARK    6  A    between atoms: O6_6  and  C6_17 
REMARK    7  A    between atoms: O9_9  and  C9_20 
REMARK    8  A    between atoms: O10_10  and  C12_23 
REMARK    9  A    between atoms: C5_16  and  C6_17 
REMARK   10  A    between atoms: C14_25  and  C16_27 
ROOT
ATOM      1  O8  UNK     1      43.190   1.670   8.575  1.00  0.00    -0.309 OA
ATOM      2  O11 UNK     1      42.646   3.435  12.207  1.00  0.00    -0.287 OA
ATOM      3  C7  UNK     1      39.555   1.483   8.754  1.00  0.00     0.110 A 
ATOM      4  C8  UNK     1      40.866   1.354   8.296  1.00  0.00     0.078 A 
ATOM      5  C9  UNK     1      39.300   2.080   9.990  1.00  0.00     0.134 A 
ATOM      6  C10 UNK     1      41.923   1.825   9.077  1.00  0.00     0.096 A 
ATOM      7  C11 UNK     1      41.665   2.420  10.311  1.00  0.00     0.084 A 
ATOM      8  C12 UNK     1      40.354   2.550  10.773  1.00  0.00     0.118 A 
ATOM      9  C13 UNK     1      42.798   2.905  11.114  1.00  0.00     0.190 A 
ATOM     10  C14 UNK     1      44.259   2.134   9.326  1.00  0.00     0.090 A 
ATOM     11  C15 UNK     1      44.141   2.718  10.528  1.00  0.00     0.094 A 
ENDROOT
BRANCH   3  12
ATOM     12  O2  UNK     1      38.529   1.021   7.983  1.00  0.00    -0.315 OA
BRANCH  12  13
ATOM     13  C4  UNK     1      38.067  -0.302   8.260  1.00  0.00     0.299 C 
ATOM     14  O1  UNK     1      38.623  -1.213   7.314  1.00  0.00    -0.340 OA
ATOM     15  C5  UNK     1      38.215  -2.556   7.553  1.00  0.00     0.253 C 
ATOM     16  C3  UNK     1      36.705  -2.703   7.408  1.00  0.00     0.189 C 
ATOM     17  C1  UNK     1      35.974  -1.711   8.312  1.00  0.00     0.183 C 
ATOM     18  C2  UNK     1      36.541  -0.299   8.163  1.00  0.00     0.205 C 
BRANCH  15  19
ATOM     19  C6  UNK     1      38.932  -3.326   6.492  1.00  0.00     0.172 C 
ATOM     20  O7  UNK     1      38.438  -4.216   5.816  1.00  0.00    -0.648 OA
BRANCH  19  21
ATOM     21  O6  UNK     1      40.215  -2.905   6.380  1.00  0.00    -0.774 OA
ATOM     22  H10 UNK     1      40.281  -1.926   6.374  1.00  0.00     0.167 HD
ENDBRANCH  19  21
ENDBRANCH  15  19
BRANCH  16  23
ATOM     23  O5  UNK     1      36.338  -4.031   7.781  1.00  0.00    -0.390 OA
ATOM     24  H8  UNK     1      35.668  -3.972   8.484  1.00  0.00     0.210 HD
ENDBRANCH  16  23
BRANCH  17  25
ATOM     25  O3  UNK     1      34.594  -1.711   7.945  1.00  0.00    -0.390 OA
ATOM     26  H6  UNK     1      34.354  -2.620   7.698  1.00  0.00     0.210 HD
ENDBRANCH  17  25
BRANCH  18  27
ATOM     27  O4  UNK     1      36.028   0.531   9.206  1.00  0.00    -0.388 OA
ATOM     28  H7  UNK     1      36.477   0.279  10.030  1.00  0.00     0.210 HD
ENDBRANCH  18  27
ENDBRANCH  12  13
ENDBRANCH   3  12
BRANCH   5  29
ATOM     29  O9  UNK     1      38.013   2.202  10.431  1.00  0.00    -0.356 OA
ATOM     30  H12 UNK     1      37.444   2.404   9.667  1.00  0.00     0.218 HD
ENDBRANCH   5  29
BRANCH   8  31
ATOM     31  O10 UNK     1      40.065   3.127  11.974  1.00  0.00    -0.357 OA
ATOM     32  H13 UNK     1      39.478   3.890  11.856  1.00  0.00     0.217 HD
ENDBRANCH   8  31
BRANCH  10  33
ATOM     33  C16 UNK     1      45.576   1.913   8.695  1.00  0.00    -0.002 A 
ATOM     34  C17 UNK     1      45.858   2.470   7.445  1.00  0.00     0.014 A 
ATOM     35  C19 UNK     1      47.102   2.262   6.850  1.00  0.00     0.001 A 
ATOM     36  C21 UNK     1      48.069   1.497   7.502  1.00  0.00     0.000 A 
ATOM     37  C20 UNK     1      47.791   0.939   8.751  1.00  0.00     0.001 A 
ATOM     38  C18 UNK     1      46.547   1.148   9.346  1.00  0.00     0.014 A 
ENDBRANCH  10  33
TORSDOF 10
ENDMDL
MODEL 15
REMARK VINA RESULT:      -6.5     13.103     16.190
REMARK  10 active torsions:
REMARK  status: ('A' for Active; 'I' for Inactive)
REMARK    1  A    between atoms: O2_2  and  C4_15 
REMARK    2  A    between atoms: O2_2  and  C7_18 
REMARK    3  A    between atoms: O3_3  and  C1_12 
REMARK    4  A    between atoms: O4_4  and  C2_13 
REMARK    5  A    between atoms: O5_5  and  C3_14 
REMARK    6  A    between atoms: O6_6  and  C6_17 
REMARK    7  A    between atoms: O9_9  and  C9_20 
REMARK    8  A    between atoms: O10_10  and  C12_23 
REMARK    9  A    between atoms: C5_16  and  C6_17 
REMARK   10  A    between atoms: C14_25  and  C16_27 
ROOT
ATOM      1  O8  UNK     1      38.579 -10.854   7.095  1.00  0.00    -0.309 OA
ATOM      2  O11 UNK     1      38.853 -11.845   3.152  1.00  0.00    -0.287 OA
ATOM      3  C7  UNK     1      37.155  -7.825   5.652  1.00  0.00     0.110 A 
ATOM      4  C8  UNK     1      37.616  -8.760   6.579  1.00  0.00     0.078 A 
ATOM      5  C9  UNK     1      37.219  -8.104   4.286  1.00  0.00     0.134 A 
ATOM      6  C10 UNK     1      38.141  -9.975   6.137  1.00  0.00     0.096 A 
ATOM      7  C11 UNK     1      38.205 -10.250   4.772  1.00  0.00     0.084 A 
ATOM      8  C12 UNK     1      37.744  -9.317   3.840  1.00  0.00     0.118 A 
ATOM      9  C13 UNK     1      38.765 -11.538   4.334  1.00  0.00     0.190 A 
ATOM     10  C14 UNK     1      39.099 -12.072   6.685  1.00  0.00     0.090 A 
ATOM     11  C15 UNK     1      39.218 -12.450   5.403  1.00  0.00     0.094 A 
ENDROOT
BRANCH   3  12
ATOM     12  O2  UNK     1      36.643  -6.641   6.094  1.00  0.00    -0.315 OA
BRANCH  12  13
ATOM     13  C4  UNK     1      37.549  -5.763   6.763  1.00  0.00     0.299 C 
ATOM     14  O1  UNK     1      36.993  -5.358   8.012  1.00  0.00    -0.340 OA
ATOM     15  C5  UNK     1      37.863  -4.496   8.737  1.00  0.00     0.253 C 
ATOM     16  C3  UNK     1      38.113  -3.201   7.973  1.00  0.00     0.189 C 
ATOM     17  C1  UNK     1      38.634  -3.493   6.566  1.00  0.00     0.183 C 
ATOM     18  C2  UNK     1      37.780  -4.548   5.863  1.00  0.00     0.205 C 
BRANCH  15  19
ATOM     19  C6  UNK     1      37.111  -4.235  10.002  1.00  0.00     0.172 C 
ATOM     20  O7  UNK     1      35.914  -4.423  10.158  1.00  0.00    -0.648 OA
BRANCH  19  21
ATOM     21  O6  UNK     1      37.940  -3.754  10.961  1.00  0.00    -0.774 OA
ATOM     22  H10 UNK     1      38.813  -3.496  10.595  1.00  0.00     0.167 HD
ENDBRANCH  19  21
ENDBRANCH  15  19
BRANCH  16  23
ATOM     23  O5  UNK     1      39.086  -2.433   8.681  1.00  0.00    -0.390 OA
ATOM     24  H8  UNK     1      39.774  -3.041   9.001  1.00  0.00     0.210 HD
ENDBRANCH  16  23
BRANCH  17  25
ATOM     25  O3  UNK     1      38.598  -2.276   5.820  1.00  0.00    -0.390 OA
ATOM     26  H6  UNK     1      38.160  -1.605   6.369  1.00  0.00     0.210 HD
ENDBRANCH  17  25
BRANCH  18  27
ATOM     27  O4  UNK     1      38.448  -4.988   4.680  1.00  0.00    -0.388 OA
ATOM     28  H7  UNK     1      37.776  -5.099   3.987  1.00  0.00     0.210 HD
ENDBRANCH  18  27
ENDBRANCH  12  13
ENDBRANCH   3  12
BRANCH   5  29
ATOM     29  O9  UNK     1      36.766  -7.183   3.385  1.00  0.00    -0.356 OA
ATOM     30  H12 UNK     1      37.410  -6.455   3.339  1.00  0.00     0.218 HD
ENDBRANCH   5  29
BRANCH   8  31
ATOM     31  O10 UNK     1      37.790  -9.552   2.499  1.00  0.00    -0.357 OA
ATOM     32  H13 UNK     1      36.920  -9.411   2.095  1.00  0.00     0.217 HD
ENDBRANCH   8  31
BRANCH  10  33
ATOM     33  C16 UNK     1      39.544 -12.938   7.796  1.00  0.00    -0.002 A 
ATOM     34  C17 UNK     1      40.400 -14.015   7.546  1.00  0.00     0.014 A 
ATOM     35  C19 UNK     1      40.821 -14.832   8.596  1.00  0.00     0.001 A 
ATOM     36  C21 UNK     1      40.389 -14.576   9.897  1.00  0.00     0.000 A 
ATOM     37  C20 UNK     1      39.534 -13.503  10.149  1.00  0.00     0.001 A 
ATOM     38  C18 UNK     1      39.113 -12.685   9.100  1.00  0.00     0.014 A 
ENDBRANCH  10  33
TORSDOF 10
ENDMDL
MODEL 16
REMARK VINA RESULT:      -6.5     16.884     20.053
REMARK  10 active torsions:
REMARK  status: ('A' for Active; 'I' for Inactive)
REMARK    1  A    between atoms: O2_2  and  C4_15 
REMARK    2  A    between atoms: O2_2  and  C7_18 
REMARK    3  A    between atoms: O3_3  and  C1_12 
REMARK    4  A    between atoms: O4_4  and  C2_13 
REMARK    5  A    between atoms: O5_5  and  C3_14 
REMARK    6  A    between atoms: O6_6  and  C6_17 
REMARK    7  A    between atoms: O9_9  and  C9_20 
REMARK    8  A    between atoms: O10_10  and  C12_23 
REMARK    9  A    between atoms: C5_16  and  C6_17 
REMARK   10  A    between atoms: C14_25  and  C16_27 
ROOT
ATOM      1  O8  UNK     1      45.537   1.376   8.808  1.00  0.00    -0.309 OA
ATOM      2  O11 UNK     1      45.354   2.438  12.737  1.00  0.00    -0.287 OA
ATOM      3  C7  UNK     1      42.561  -0.499   9.760  1.00  0.00     0.110 A 
ATOM      4  C8  UNK     1      43.606   0.031   9.003  1.00  0.00     0.078 A 
ATOM      5  C9  UNK     1      42.440  -0.174  11.112  1.00  0.00     0.134 A 
ATOM      6  C10 UNK     1      44.532   0.887   9.602  1.00  0.00     0.096 A 
ATOM      7  C11 UNK     1      44.409   1.210  10.952  1.00  0.00     0.084 A 
ATOM      8  C12 UNK     1      43.363   0.682  11.713  1.00  0.00     0.118 A 
ATOM      9  C13 UNK     1      45.399   2.113  11.558  1.00  0.00     0.190 A 
ATOM     10  C14 UNK     1      46.467   2.235   9.374  1.00  0.00     0.090 A 
ATOM     11  C15 UNK     1      46.459   2.615  10.661  1.00  0.00     0.094 A 
ENDROOT
BRANCH   3  12
ATOM     12  O2  UNK     1      41.662  -1.334   9.165  1.00  0.00    -0.315 OA
BRANCH  12  13
ATOM     13  C4  UNK     1      40.606  -0.717   8.427  1.00  0.00     0.299 C 
ATOM     14  O1  UNK     1      39.806   0.074   9.302  1.00  0.00    -0.340 OA
ATOM     15  C5  UNK     1      38.747   0.734   8.618  1.00  0.00     0.253 C 
ATOM     16  C3  UNK     1      37.785  -0.271   7.997  1.00  0.00     0.189 C 
ATOM     17  C1  UNK     1      38.532  -1.250   7.093  1.00  0.00     0.183 C 
ATOM     18  C2  UNK     1      39.765  -1.824   7.791  1.00  0.00     0.205 C 
BRANCH  15  19
ATOM     19  C6  UNK     1      38.077   1.520   9.698  1.00  0.00     0.172 C 
ATOM     20  O7  UNK     1      38.580   2.457  10.299  1.00  0.00    -0.648 OA
BRANCH  19  21
ATOM     21  O6  UNK     1      36.828   1.049   9.928  1.00  0.00    -0.774 OA
ATOM     22  H10 UNK     1      36.821   0.344  10.610  1.00  0.00     0.167 HD
ENDBRANCH  19  21
ENDBRANCH  15  19
BRANCH  16  23
ATOM     23  O5  UNK     1      36.820   0.438   7.221  1.00  0.00    -0.390 OA
ATOM     24  H8  UNK     1      37.252   1.228   6.852  1.00  0.00     0.210 HD
ENDBRANCH  16  23
BRANCH  17  25
ATOM     25  O3  UNK     1      37.638  -2.312   6.756  1.00  0.00    -0.390 OA
ATOM     26  H6  UNK     1      38.005  -3.135   7.120  1.00  0.00     0.210 HD
ENDBRANCH  17  25
BRANCH  18  27
ATOM     27  O4  UNK     1      40.576  -2.509   6.835  1.00  0.00    -0.388 OA
ATOM     28  H7  UNK     1      40.948  -3.292   7.272  1.00  0.00     0.210 HD
ENDBRANCH  18  27
ENDBRANCH  12  13
ENDBRANCH   3  12
BRANCH   5  29
ATOM     29  O9  UNK     1      41.414  -0.696  11.845  1.00  0.00    -0.356 OA
ATOM     30  H12 UNK     1      40.702  -0.034  11.894  1.00  0.00     0.218 HD
ENDBRANCH   5  29
BRANCH   8  31
ATOM     31  O10 UNK     1      43.212   0.976  13.035  1.00  0.00    -0.357 OA
ATOM     32  H13 UNK     1      42.411   1.501  13.181  1.00  0.00     0.217 HD
ENDBRANCH   8  31
BRANCH  10  33
ATOM     33  C16 UNK     1      47.508   2.697   8.433  1.00  0.00    -0.002 A 
ATOM     34  C17 UNK     1      47.305   2.590   7.055  1.00  0.00     0.014 A 
ATOM     35  C19 UNK     1      48.288   3.027   6.166  1.00  0.00     0.001 A 
ATOM     36  C21 UNK     1      49.475   3.574   6.652  1.00  0.00     0.000 A 
ATOM     37  C20 UNK     1      49.681   3.682   8.028  1.00  0.00     0.001 A 
ATOM     38  C18 UNK     1      48.698   3.244   8.916  1.00  0.00     0.014 A 
ENDBRANCH  10  33
TORSDOF 10
ENDMDL
MODEL 17
REMARK VINA RESULT:      -6.5     14.229     17.820
REMARK  10 active torsions:
REMARK  status: ('A' for Active; 'I' for Inactive)
REMARK    1  A    between atoms: O2_2  and  C4_15 
REMARK    2  A    between atoms: O2_2  and  C7_18 
REMARK    3  A    between atoms: O3_3  and  C1_12 
REMARK    4  A    between atoms: O4_4  and  C2_13 
REMARK    5  A    between atoms: O5_5  and  C3_14 
REMARK    6  A    between atoms: O6_6  and  C6_17 
REMARK    7  A    between atoms: O9_9  and  C9_20 
REMARK    8  A    between atoms: O10_10  and  C12_23 
REMARK    9  A    between atoms: C5_16  and  C6_17 
REMARK   10  A    between atoms: C14_25  and  C16_27 
ROOT
ATOM      1  O8  UNK     1      41.115  -0.599   8.848  1.00  0.00    -0.309 OA
ATOM      2  O11 UNK     1      38.717   1.912   6.716  1.00  0.00    -0.287 OA
ATOM      3  C7  UNK     1      37.945  -2.341   9.286  1.00  0.00     0.110 A 
ATOM      4  C8  UNK     1      39.298  -2.015   9.368  1.00  0.00     0.078 A 
ATOM      5  C9  UNK     1      37.069  -1.524   8.570  1.00  0.00     0.134 A 
ATOM      6  C10 UNK     1      39.776  -0.868   8.731  1.00  0.00     0.096 A 
ATOM      7  C11 UNK     1      38.899  -0.054   8.017  1.00  0.00     0.084 A 
ATOM      8  C12 UNK     1      37.543  -0.377   7.932  1.00  0.00     0.118 A 
ATOM      9  C13 UNK     1      39.428   1.150   7.357  1.00  0.00     0.190 A 
ATOM     10  C14 UNK     1      41.619   0.530   8.219  1.00  0.00     0.090 A 
ATOM     11  C15 UNK     1      40.877   1.394   7.509  1.00  0.00     0.094 A 
ENDROOT
BRANCH   3  12
ATOM     12  O2  UNK     1      37.489  -3.464   9.912  1.00  0.00    -0.315 OA
BRANCH  12  13
ATOM     13  C4  UNK     1      37.542  -4.679   9.163  1.00  0.00     0.299 C 
ATOM     14  O1  UNK     1      37.569  -4.385   7.769  1.00  0.00    -0.340 OA
ATOM     15  C5  UNK     1      37.645  -5.559   6.969  1.00  0.00     0.253 C 
ATOM     16  C3  UNK     1      36.415  -6.437   7.166  1.00  0.00     0.189 C 
ATOM     17  C1  UNK     1      36.212  -6.760   8.646  1.00  0.00     0.183 C 
ATOM     18  C2  UNK     1      36.300  -5.502   9.510  1.00  0.00     0.205 C 
BRANCH  15  19
ATOM     19  C6  UNK     1      37.701  -5.023   5.575  1.00  0.00     0.172 C 
ATOM     20  O7  UNK     1      36.935  -5.328   4.674  1.00  0.00    -0.648 OA
BRANCH  19  21
ATOM     21  O6  UNK     1      38.727  -4.147   5.441  1.00  0.00    -0.774 OA
ATOM     22  H10 UNK     1      38.631  -3.591   4.639  1.00  0.00     0.167 HD
ENDBRANCH  19  21
ENDBRANCH  15  19
BRANCH  16  23
ATOM     23  O5  UNK     1      36.600  -7.653   6.444  1.00  0.00    -0.390 OA
ATOM     24  H8  UNK     1      37.133  -8.253   6.995  1.00  0.00     0.210 HD
ENDBRANCH  16  23
BRANCH  17  25
ATOM     25  O3  UNK     1      34.920  -7.351   8.797  1.00  0.00    -0.390 OA
ATOM     26  H6  UNK     1      35.026  -8.315   8.735  1.00  0.00     0.210 HD
ENDBRANCH  17  25
BRANCH  18  27
ATOM     27  O4  UNK     1      36.380  -5.875  10.885  1.00  0.00    -0.388 OA
ATOM     28  H7  UNK     1      35.580  -6.383  11.100  1.00  0.00     0.210 HD
ENDBRANCH  18  27
ENDBRANCH  12  13
ENDBRANCH   3  12
BRANCH   5  29
ATOM     29  O9  UNK     1      35.746  -1.850   8.495  1.00  0.00    -0.356 OA
ATOM     30  H12 UNK     1      35.424  -1.629   7.603  1.00  0.00     0.218 HD
ENDBRANCH   5  29
BRANCH   8  31
ATOM     31  O10 UNK     1      36.657   0.396   7.243  1.00  0.00    -0.357 OA
ATOM     32  H13 UNK     1      36.439  -0.008   6.389  1.00  0.00     0.217 HD
ENDBRANCH   8  31
BRANCH  10  33
ATOM     33  C16 UNK     1      43.070   0.727   8.413  1.00  0.00    -0.002 A 
ATOM     34  C17 UNK     1      43.707   0.190   9.535  1.00  0.00     0.014 A 
ATOM     35  C19 UNK     1      45.078   0.376   9.716  1.00  0.00     0.001 A 
ATOM     36  C21 UNK     1      45.816   1.097   8.778  1.00  0.00     0.000 A 
ATOM     37  C20 UNK     1      45.182   1.635   7.657  1.00  0.00     0.001 A 
ATOM     38  C18 UNK     1      43.811   1.449   7.475  1.00  0.00     0.014 A 
ENDBRANCH  10  33
TORSDOF 10
ENDMDL
MODEL 18
REMARK VINA RESULT:      -6.4     16.221     19.468
REMARK  10 active torsions:
REMARK  status: ('A' for Active; 'I' for Inactive)
REMARK    1  A    between atoms: O2_2  and  C4_15 
REMARK    2  A    between atoms: O2_2  and  C7_18 
REMARK    3  A    between atoms: O3_3  and  C1_12 
REMARK    4  A    between atoms: O4_4  and  C2_13 
REMARK    5  A    between atoms: O5_5  and  C3_14 
REMARK    6  A    between atoms: O6_6  and  C6_17 
REMARK    7  A    between atoms: O9_9  and  C9_20 
REMARK    8  A    between atoms: O10_10  and  C12_23 
REMARK    9  A    between atoms: C5_16  and  C6_17 
REMARK   10  A    between atoms: C14_25  and  C16_27 
ROOT
ATOM      1  O8  UNK     1      44.387   0.373   9.111  1.00  0.00    -0.309 OA
ATOM      2  O11 UNK     1      43.873   1.913  12.848  1.00  0.00    -0.287 OA
ATOM      3  C7  UNK     1      41.438  -1.525  10.101  1.00  0.00     0.110 A 
ATOM      4  C8  UNK     1      42.510  -1.040   9.352  1.00  0.00     0.078 A 
ATOM      5  C9  UNK     1      41.205  -1.038  11.389  1.00  0.00     0.134 A 
ATOM      6  C10 UNK     1      43.350  -0.065   9.894  1.00  0.00     0.096 A 
ATOM      7  C11 UNK     1      43.115   0.419  11.179  1.00  0.00     0.084 A 
ATOM      8  C12 UNK     1      42.043  -0.064  11.933  1.00  0.00     0.118 A 
ATOM      9  C13 UNK     1      44.017   1.445  11.726  1.00  0.00     0.190 A 
ATOM     10  C14 UNK     1      45.234   1.346   9.620  1.00  0.00     0.090 A 
ATOM     11  C15 UNK     1      45.116   1.886  10.843  1.00  0.00     0.094 A 
ENDROOT
BRANCH   3  12
ATOM     12  O2  UNK     1      40.623  -2.477   9.563  1.00  0.00    -0.315 OA
BRANCH  12  13
ATOM     13  C4  UNK     1      39.513  -2.009   8.796  1.00  0.00     0.299 C 
ATOM     14  O1  UNK     1      38.315  -2.130   9.560  1.00  0.00    -0.340 OA
ATOM     15  C5  UNK     1      37.173  -1.657   8.854  1.00  0.00     0.253 C 
ATOM     16  C3  UNK     1      36.928  -2.480   7.595  1.00  0.00     0.189 C 
ATOM     17  C1  UNK     1      38.177  -2.510   6.715  1.00  0.00     0.183 C 
ATOM     18  C2  UNK     1      39.424  -2.858   7.528  1.00  0.00     0.205 C 
BRANCH  15  19
ATOM     19  C6  UNK     1      36.063  -1.838   9.837  1.00  0.00     0.172 C 
ATOM     20  O7  UNK     1      35.846  -1.109  10.793  1.00  0.00    -0.648 OA
BRANCH  19  21
ATOM     21  O6  UNK     1      35.322  -2.930   9.526  1.00  0.00    -0.774 OA
ATOM     22  H10 UNK     1      34.398  -2.693   9.298  1.00  0.00     0.167 HD
ENDBRANCH  19  21
ENDBRANCH  15  19
BRANCH  16  23
ATOM     23  O5  UNK     1      35.856  -1.887   6.863  1.00  0.00    -0.390 OA
ATOM     24  H8  UNK     1      35.029  -2.061   7.345  1.00  0.00     0.210 HD
ENDBRANCH  16  23
BRANCH  17  25
ATOM     25  O3  UNK     1      37.980  -3.495   5.699  1.00  0.00    -0.390 OA
ATOM     26  H6  UNK     1      37.026  -3.668   5.636  1.00  0.00     0.210 HD
ENDBRANCH  17  25
BRANCH  18  27
ATOM     27  O4  UNK     1      40.589  -2.609   6.740  1.00  0.00    -0.388 OA
ATOM     28  H7  UNK     1      41.103  -1.916   7.185  1.00  0.00     0.210 HD
ENDBRANCH  18  27
ENDBRANCH  12  13
ENDBRANCH   3  12
BRANCH   5  29
ATOM     29  O9  UNK     1      40.154  -1.518  12.115  1.00  0.00    -0.356 OA
ATOM     30  H12 UNK     1      40.506  -2.019  12.871  1.00  0.00     0.218 HD
ENDBRANCH   5  29
BRANCH   8  31
ATOM     31  O10 UNK     1      41.783   0.387  13.193  1.00  0.00    -0.357 OA
ATOM     32  H13 UNK     1      41.366   1.261  13.166  1.00  0.00     0.217 HD
ENDBRANCH   8  31
BRANCH  10  33
ATOM     33  C16 UNK     1      46.317   1.741   8.697  1.00  0.00    -0.002 A 
ATOM     34  C17 UNK     1      46.011   2.300   7.453  1.00  0.00     0.014 A 
ATOM     35  C19 UNK     1      47.035   2.674   6.583  1.00  0.00     0.001 A 
ATOM     36  C21 UNK     1      48.367   2.491   6.952  1.00  0.00     0.000 A 
ATOM     37  C20 UNK     1      48.676   1.933   8.192  1.00  0.00     0.001 A 
ATOM     38  C18 UNK     1      47.653   1.559   9.063  1.00  0.00     0.014 A 
ENDBRANCH  10  33
TORSDOF 10
ENDMDL
MODEL 19
REMARK VINA RESULT:      -6.4     17.667     21.167
REMARK  10 active torsions:
REMARK  status: ('A' for Active; 'I' for Inactive)
REMARK    1  A    between atoms: O2_2  and  C4_15 
REMARK    2  A    between atoms: O2_2  and  C7_18 
REMARK    3  A    between atoms: O3_3  and  C1_12 
REMARK    4  A    between atoms: O4_4  and  C2_13 
REMARK    5  A    between atoms: O5_5  and  C3_14 
REMARK    6  A    between atoms: O6_6  and  C6_17 
REMARK    7  A    between atoms: O9_9  and  C9_20 
REMARK    8  A    between atoms: O10_10  and  C12_23 
REMARK    9  A    between atoms: C5_16  and  C6_17 
REMARK   10  A    between atoms: C14_25  and  C16_27 
ROOT
ATOM      1  O8  UNK     1      45.043   3.271   8.820  1.00  0.00    -0.309 OA
ATOM      2  O11 UNK     1      44.007   7.061   9.897  1.00  0.00    -0.287 OA
ATOM      3  C7  UNK     1      41.514   2.709   9.535  1.00  0.00     0.110 A 
ATOM      4  C8  UNK     1      42.843   2.489   9.171  1.00  0.00     0.078 A 
ATOM      5  C9  UNK     1      41.093   3.984   9.913  1.00  0.00     0.134 A 
ATOM      6  C10 UNK     1      43.751   3.549   9.186  1.00  0.00     0.096 A 
ATOM      7  C11 UNK     1      43.328   4.821   9.565  1.00  0.00     0.084 A 
ATOM      8  C12 UNK     1      41.999   5.046   9.930  1.00  0.00     0.118 A 
ATOM      9  C13 UNK     1      44.307   5.920   9.574  1.00  0.00     0.190 A 
ATOM     10  C14 UNK     1      45.965   4.306   8.818  1.00  0.00     0.090 A 
ATOM     11  C15 UNK     1      45.683   5.571   9.167  1.00  0.00     0.094 A 
ENDROOT
BRANCH   3  12
ATOM     12  O2  UNK     1      40.635   1.666   9.516  1.00  0.00    -0.315 OA
BRANCH  12  13
ATOM     13  C4  UNK     1      41.191   0.358   9.648  1.00  0.00     0.299 C 
ATOM     14  O1  UNK     1      40.447  -0.563   8.853  1.00  0.00    -0.340 OA
ATOM     15  C5  UNK     1      40.970  -1.885   8.926  1.00  0.00     0.253 C 
ATOM     16  C3  UNK     1      40.888  -2.429  10.347  1.00  0.00     0.189 C 
ATOM     17  C1  UNK     1      41.578  -1.483  11.330  1.00  0.00     0.183 C 
ATOM     18  C2  UNK     1      41.125  -0.037  11.123  1.00  0.00     0.205 C 
BRANCH  15  19
ATOM     19  C6  UNK     1      40.081  -2.657   8.006  1.00  0.00     0.172 C 
ATOM     20  O7  UNK     1      39.056  -3.234   8.340  1.00  0.00    -0.648 OA
BRANCH  19  21
ATOM     21  O6  UNK     1      40.566  -2.635   6.741  1.00  0.00    -0.774 OA
ATOM     22  H10 UNK     1      40.560  -1.730   6.361  1.00  0.00     0.167 HD
ENDBRANCH  19  21
ENDBRANCH  15  19
BRANCH  16  23
ATOM     23  O5  UNK     1      41.538  -3.698  10.389  1.00  0.00    -0.390 OA
ATOM     24  H8  UNK     1      42.464  -3.573  10.119  1.00  0.00     0.210 HD
ENDBRANCH  16  23
BRANCH  17  25
ATOM     25  O3  UNK     1      41.245  -1.901  12.655  1.00  0.00    -0.390 OA
ATOM     26  H6  UNK     1      42.013  -1.725  13.222  1.00  0.00     0.210 HD
ENDBRANCH  17  25
BRANCH  18  27
ATOM     27  O4  UNK     1      41.980   0.837  11.860  1.00  0.00    -0.388 OA
ATOM     28  H7  UNK     1      42.887   0.700  11.540  1.00  0.00     0.210 HD
ENDBRANCH  18  27
ENDBRANCH  12  13
ENDBRANCH   3  12
BRANCH   5  29
ATOM     29  O9  UNK     1      39.792   4.191  10.268  1.00  0.00    -0.356 OA
ATOM     30  H12 UNK     1      39.241   3.527   9.817  1.00  0.00     0.218 HD
ENDBRANCH   5  29
BRANCH   8  31
ATOM     31  O10 UNK     1      41.550   6.277  10.305  1.00  0.00    -0.357 OA
ATOM     32  H13 UNK     1      41.987   6.973   9.792  1.00  0.00     0.217 HD
ENDBRANCH   8  31
BRANCH  10  33
ATOM     33  C16 UNK     1      47.326   3.897   8.412  1.00  0.00    -0.002 A 
ATOM     34  C17 UNK     1      47.503   3.028   7.333  1.00  0.00     0.014 A 
ATOM     35  C19 UNK     1      48.788   2.642   6.949  1.00  0.00     0.001 A 
ATOM     36  C21 UNK     1      49.898   3.126   7.641  1.00  0.00     0.000 A 
ATOM     37  C20 UNK     1      49.724   3.994   8.719  1.00  0.00     0.001 A 
ATOM     38  C18 UNK     1      48.439   4.379   9.103  1.00  0.00     0.014 A 
ENDBRANCH  10  33
TORSDOF 10
ENDMDL
MODEL 20
REMARK VINA RESULT:      -6.4     15.550     19.113
REMARK  10 active torsions:
REMARK  status: ('A' for Active; 'I' for Inactive)
REMARK    1  A    between atoms: O2_2  and  C4_15 
REMARK    2  A    between atoms: O2_2  and  C7_18 
REMARK    3  A    between atoms: O3_3  and  C1_12 
REMARK    4  A    between atoms: O4_4  and  C2_13 
REMARK    5  A    between atoms: O5_5  and  C3_14 
REMARK    6  A    between atoms: O6_6  and  C6_17 
REMARK    7  A    between atoms: O9_9  and  C9_20 
REMARK    8  A    between atoms: O10_10  and  C12_23 
REMARK    9  A    between atoms: C5_16  and  C6_17 
REMARK   10  A    between atoms: C14_25  and  C16_27 
ROOT
ATOM      1  O8  UNK     1      44.100   0.470   9.342  1.00  0.00    -0.309 OA
ATOM      2  O11 UNK     1      42.847   3.026   6.427  1.00  0.00    -0.287 OA
ATOM      3  C7  UNK     1      40.530  -0.251   9.458  1.00  0.00     0.110 A 
ATOM      4  C8  UNK     1      41.896  -0.281   9.736  1.00  0.00     0.078 A 
ATOM      5  C9  UNK     1      40.035   0.602   8.469  1.00  0.00     0.134 A 
ATOM      6  C10 UNK     1      42.769   0.543   9.023  1.00  0.00     0.096 A 
ATOM      7  C11 UNK     1      42.272   1.394   8.037  1.00  0.00     0.084 A 
ATOM      8  C12 UNK     1      40.904   1.427   7.755  1.00  0.00     0.118 A 
ATOM      9  C13 UNK     1      43.213   2.253   7.303  1.00  0.00     0.190 A 
ATOM     10  C14 UNK     1      44.991   1.272   8.645  1.00  0.00     0.090 A 
ATOM     11  C15 UNK     1      44.636   2.134   7.680  1.00  0.00     0.094 A 
ENDROOT
BRANCH   3  12
ATOM     12  O2  UNK     1      39.686  -1.061  10.159  1.00  0.00    -0.315 OA
BRANCH  12  13
ATOM     13  C4  UNK     1      39.412  -2.342   9.593  1.00  0.00     0.299 C 
ATOM     14  O1  UNK     1      38.755  -2.183   8.337  1.00  0.00    -0.340 OA
ATOM     15  C5  UNK     1      38.474  -3.429   7.711  1.00  0.00     0.253 C 
ATOM     16  C3  UNK     1      37.519  -4.264   8.556  1.00  0.00     0.189 C 
ATOM     17  C1  UNK     1      38.064  -4.441   9.973  1.00  0.00     0.183 C 
ATOM     18  C2  UNK     1      38.516  -3.108  10.568  1.00  0.00     0.205 C 
BRANCH  15  19
ATOM     19  C6  UNK     1      37.837  -3.029   6.420  1.00  0.00     0.172 C 
ATOM     20  O7  UNK     1      36.765  -3.448   6.007  1.00  0.00    -0.648 OA
BRANCH  19  21
ATOM     21  O6  UNK     1      38.612  -2.134   5.761  1.00  0.00    -0.774 OA
ATOM     22  H10 UNK     1      38.227  -1.232   5.779  1.00  0.00     0.167 HD
ENDBRANCH  19  21
ENDBRANCH  15  19
BRANCH  16  23
ATOM     23  O5  UNK     1      37.373  -5.547   7.949  1.00  0.00    -0.390 OA
ATOM     24  H8  UNK     1      38.156  -6.078   8.175  1.00  0.00     0.210 HD
ENDBRANCH  16  23
BRANCH  17  25
ATOM     25  O3  UNK     1      37.023  -4.994  10.781  1.00  0.00    -0.390 OA
ATOM     26  H6  UNK     1      37.288  -4.899  11.711  1.00  0.00     0.210 HD
ENDBRANCH  17  25
BRANCH  18  27
ATOM     27  O4  UNK     1      39.260  -3.349  11.763  1.00  0.00    -0.388 OA
ATOM     28  H7  UNK     1      40.163  -3.596  11.502  1.00  0.00     0.210 HD
ENDBRANCH  18  27
ENDBRANCH  12  13
ENDBRANCH   3  12
BRANCH   5  29
ATOM     29  O9  UNK     1      38.697   0.626   8.203  1.00  0.00    -0.356 OA
ATOM     30  H12 UNK     1      38.271   1.247   8.820  1.00  0.00     0.218 HD
ENDBRANCH   5  29
BRANCH   8  31
ATOM     31  O10 UNK     1      40.383   2.246   6.798  1.00  0.00    -0.357 OA
ATOM     32  H13 UNK     1      39.736   2.856   7.183  1.00  0.00     0.217 HD
ENDBRANCH   8  31
BRANCH  10  33
ATOM     33  C16 UNK     1      46.397   1.117   9.070  1.00  0.00    -0.002 A 
ATOM     34  C17 UNK     1      47.428   1.656   8.295  1.00  0.00     0.014 A 
ATOM     35  C19 UNK     1      48.756   1.511   8.698  1.00  0.00     0.001 A 
ATOM     36  C21 UNK     1      49.057   0.827   9.876  1.00  0.00     0.000 A 
ATOM     37  C20 UNK     1      48.031   0.288  10.652  1.00  0.00     0.001 A 
ATOM     38  C18 UNK     1      46.703   0.434  10.249  1.00  0.00     0.014 A 
ENDBRANCH  10  33
TORSDOF 10
ENDMDL
