MODEL 1
REMARK VINA RESULT:      -6.4      0.000      0.000
REMARK  10 active torsions:
REMARK  status: ('A' for Active; 'I' for Inactive)
REMARK    1  A    between atoms: O2_2  and  C4_15 
REMARK    2  A    between atoms: O2_2  and  C7_18 
REMARK    3  A    between atoms: O3_3  and  C1_12 
REMARK    4  A    between atoms: O4_4  and  C2_13 
REMARK    5  A    between atoms: O5_5  and  C3_14 
REMARK    6  A    between atoms: O6_6  and  C6_17 
REMARK    7  A    between atoms: O9_9  and  C9_20 
REMARK    8  A    between atoms: O10_10  and  C12_23 
REMARK    9  A    between atoms: C5_16  and  C6_17 
REMARK   10  A    between atoms: C14_25  and  C16_27 
ROOT
ATOM      1  O8  UNK     1      38.129  22.428  11.264  1.00  0.00    -0.309 OA
ATOM      2  O11 UNK     1      36.371  20.666  14.490  1.00  0.00    -0.287 OA
ATOM      3  C7  UNK     1      40.391  19.599  11.663  1.00  0.00     0.110 A 
ATOM      4  C8  UNK     1      39.804  20.766  11.174  1.00  0.00     0.078 A 
ATOM      5  C9  UNK     1      39.837  18.946  12.765  1.00  0.00     0.134 A 
ATOM      6  C10 UNK     1      38.660  21.279  11.789  1.00  0.00     0.096 A 
ATOM      7  C11 UNK     1      38.110  20.624  12.890  1.00  0.00     0.084 A 
ATOM      8  C12 UNK     1      38.695  19.455  13.382  1.00  0.00     0.118 A 
ATOM      9  C13 UNK     1      36.906  21.187  13.520  1.00  0.00     0.190 A 
ATOM     10  C14 UNK     1      36.988  22.956  11.851  1.00  0.00     0.090 A 
ATOM     11  C15 UNK     1      36.370  22.423  12.916  1.00  0.00     0.094 A 
ENDROOT
BRANCH   3  12
ATOM     12  O2  UNK     1      41.507  19.107  11.054  1.00  0.00    -0.315 OA
BRANCH  12  13
ATOM     13  C4  UNK     1      42.764  19.530  11.585  1.00  0.00     0.299 C 
ATOM     14  O1  UNK     1      43.266  20.623  10.820  1.00  0.00    -0.340 OA
ATOM     15  C5  UNK     1      44.510  21.105  11.315  1.00  0.00     0.253 C 
ATOM     16  C3  UNK     1      45.587  20.031  11.228  1.00  0.00     0.189 C 
ATOM     17  C1  UNK     1      45.139  18.755  11.940  1.00  0.00     0.183 C 
ATOM     18  C2  UNK     1      43.728  18.345  11.516  1.00  0.00     0.205 C 
BRANCH  15  19
ATOM     19  C6  UNK     1      44.821  22.250  10.407  1.00  0.00     0.172 C 
ATOM     20  O7  UNK     1      44.256  23.333  10.424  1.00  0.00    -0.648 OA
BRANCH  19  21
ATOM     21  O6  UNK     1      45.821  21.924   9.552  1.00  0.00    -0.774 OA
ATOM     22  H10 UNK     1      46.318  21.133   9.852  1.00  0.00     0.167 HD
ENDBRANCH  19  21
ENDBRANCH  15  19
BRANCH  16  23
ATOM     23  O5  UNK     1      46.773  20.521  11.852  1.00  0.00    -0.390 OA
ATOM     24  H8  UNK     1      46.516  20.975  12.673  1.00  0.00     0.210 HD
ENDBRANCH  16  23
BRANCH  17  25
ATOM     25  O3  UNK     1      46.058  17.714  11.604  1.00  0.00    -0.390 OA
ATOM     26  H6  UNK     1      45.759  16.902  12.045  1.00  0.00     0.210 HD
ENDBRANCH  17  25
BRANCH  18  27
ATOM     27  O4  UNK     1      43.247  17.325  12.392  1.00  0.00    -0.388 OA
ATOM     28  H7  UNK     1      43.090  17.733  13.260  1.00  0.00     0.210 HD
ENDBRANCH  18  27
ENDBRANCH  12  13
ENDBRANCH   3  12
BRANCH   5  29
ATOM     29  O9  UNK     1      40.418  17.804  13.238  1.00  0.00    -0.356 OA
ATOM     30  H12 UNK     1      41.280  18.036  13.626  1.00  0.00     0.218 HD
ENDBRANCH   5  29
BRANCH   8  31
ATOM     31  O10 UNK     1      38.184  18.788  14.456  1.00  0.00    -0.357 OA
ATOM     32  H13 UNK     1      38.195  17.831  14.304  1.00  0.00     0.217 HD
ENDBRANCH   8  31
BRANCH  10  33
ATOM     33  C16 UNK     1      36.503  24.196  11.211  1.00  0.00    -0.002 A 
ATOM     34  C17 UNK     1      35.463  24.144  10.279  1.00  0.00     0.014 A 
ATOM     35  C19 UNK     1      35.004  25.315   9.675  1.00  0.00     0.001 A 
ATOM     36  C21 UNK     1      35.583  26.541  10.001  1.00  0.00     0.000 A 
ATOM     37  C20 UNK     1      36.622  26.597  10.931  1.00  0.00     0.001 A 
ATOM     38  C18 UNK     1      37.081  25.426  11.534  1.00  0.00     0.014 A 
ENDBRANCH  10  33
TORSDOF 10
ENDMDL
MODEL 2
REMARK VINA RESULT:      -6.4      1.142      1.607
REMARK  10 active torsions:
REMARK  status: ('A' for Active; 'I' for Inactive)
REMARK    1  A    between atoms: O2_2  and  C4_15 
REMARK    2  A    between atoms: O2_2  and  C7_18 
REMARK    3  A    between atoms: O3_3  and  C1_12 
REMARK    4  A    between atoms: O4_4  and  C2_13 
REMARK    5  A    between atoms: O5_5  and  C3_14 
REMARK    6  A    between atoms: O6_6  and  C6_17 
REMARK    7  A    between atoms: O9_9  and  C9_20 
REMARK    8  A    between atoms: O10_10  and  C12_23 
REMARK    9  A    between atoms: C5_16  and  C6_17 
REMARK   10  A    between atoms: C14_25  and  C16_27 
ROOT
ATOM      1  O8  UNK     1      38.534  22.535  11.087  1.00  0.00    -0.309 OA
ATOM      2  O11 UNK     1      36.944  20.077  13.920  1.00  0.00    -0.287 OA
ATOM      3  C7  UNK     1      41.203  20.059  11.246  1.00  0.00     0.110 A 
ATOM      4  C8  UNK     1      40.458  21.180  10.882  1.00  0.00     0.078 A 
ATOM      5  C9  UNK     1      40.715  19.176  12.209  1.00  0.00     0.134 A 
ATOM      6  C10 UNK     1      39.221  21.417  11.484  1.00  0.00     0.096 A 
ATOM      7  C11 UNK     1      38.736  20.533  12.447  1.00  0.00     0.084 A 
ATOM      8  C12 UNK     1      39.479  19.409  12.814  1.00  0.00     0.118 A 
ATOM      9  C13 UNK     1      37.430  20.808  13.067  1.00  0.00     0.190 A 
ATOM     10  C14 UNK     1      37.299  22.792  11.663  1.00  0.00     0.090 A 
ATOM     11  C15 UNK     1      36.729  22.021  12.602  1.00  0.00     0.094 A 
ENDROOT
BRANCH   3  12
ATOM     12  O2  UNK     1      42.410  19.837  10.651  1.00  0.00    -0.315 OA
BRANCH  12  13
ATOM     13  C4  UNK     1      43.512  20.607  11.132  1.00  0.00     0.299 C 
ATOM     14  O1  UNK     1      43.360  21.967  10.730  1.00  0.00    -0.340 OA
ATOM     15  C5  UNK     1      44.420  22.792  11.201  1.00  0.00     0.253 C 
ATOM     16  C3  UNK     1      45.758  22.351  10.618  1.00  0.00     0.189 C 
ATOM     17  C1  UNK     1      46.011  20.870  10.902  1.00  0.00     0.183 C 
ATOM     18  C2  UNK     1      44.794  20.018  10.543  1.00  0.00     0.205 C 
BRANCH  15  19
ATOM     19  C6  UNK     1      44.043  24.150  10.708  1.00  0.00     0.172 C 
ATOM     20  O7  UNK     1      43.378  24.374   9.707  1.00  0.00    -0.648 OA
BRANCH  19  21
ATOM     21  O6  UNK     1      44.544  25.111  11.522  1.00  0.00    -0.774 OA
ATOM     22  H10 UNK     1      44.015  25.937  11.484  1.00  0.00     0.167 HD
ENDBRANCH  19  21
ENDBRANCH  15  19
BRANCH  16  23
ATOM     23  O5  UNK     1      46.795  23.124  11.219  1.00  0.00    -0.390 OA
ATOM     24  H8  UNK     1      47.612  22.597  11.204  1.00  0.00     0.210 HD
ENDBRANCH  16  23
BRANCH  17  25
ATOM     25  O3  UNK     1      47.131  20.455  10.118  1.00  0.00    -0.390 OA
ATOM     26  H6  UNK     1      46.795  20.158   9.257  1.00  0.00     0.210 HD
ENDBRANCH  17  25
BRANCH  18  27
ATOM     27  O4  UNK     1      44.964  18.702  11.070  1.00  0.00    -0.388 OA
ATOM     28  H7  UNK     1      45.913  18.571  11.234  1.00  0.00     0.210 HD
ENDBRANCH  18  27
ENDBRANCH  12  13
ENDBRANCH   3  12
BRANCH   5  29
ATOM     29  O9  UNK     1      41.451  18.081  12.560  1.00  0.00    -0.356 OA
ATOM     30  H12 UNK     1      41.074  17.705  13.375  1.00  0.00     0.218 HD
ENDBRANCH   5  29
BRANCH   8  31
ATOM     31  O10 UNK     1      39.036  18.524  13.750  1.00  0.00    -0.357 OA
ATOM     32  H13 UNK     1      39.648  18.482  14.501  1.00  0.00     0.217 HD
ENDBRANCH   8  31
BRANCH  10  33
ATOM     33  C16 UNK     1      36.649  24.022  11.166  1.00  0.00    -0.002 A 
ATOM     34  C17 UNK     1      35.612  23.940  10.234  1.00  0.00     0.014 A 
ATOM     35  C19 UNK     1      34.997  25.102   9.766  1.00  0.00     0.001 A 
ATOM     36  C21 UNK     1      35.417  26.348  10.229  1.00  0.00     0.000 A 
ATOM     37  C20 UNK     1      36.453  26.434  11.159  1.00  0.00     0.001 A 
ATOM     38  C18 UNK     1      37.067  25.272  11.627  1.00  0.00     0.014 A 
ENDBRANCH  10  33
TORSDOF 10
ENDMDL
MODEL 3
REMARK VINA RESULT:      -6.3      2.935      5.159
REMARK  10 active torsions:
REMARK  status: ('A' for Active; 'I' for Inactive)
REMARK    1  A    between atoms: O2_2  and  C4_15 
REMARK    2  A    between atoms: O2_2  and  C7_18 
REMARK    3  A    between atoms: O3_3  and  C1_12 
REMARK    4  A    between atoms: O4_4  and  C2_13 
REMARK    5  A    between atoms: O5_5  and  C3_14 
REMARK    6  A    between atoms: O6_6  and  C6_17 
REMARK    7  A    between atoms: O9_9  and  C9_20 
REMARK    8  A    between atoms: O10_10  and  C12_23 
REMARK    9  A    between atoms: C5_16  and  C6_17 
REMARK   10  A    between atoms: C14_25  and  C16_27 
ROOT
ATOM      1  O8  UNK     1      38.834  25.078  12.042  1.00  0.00    -0.309 OA
ATOM      2  O11 UNK     1      39.957  28.935  12.722  1.00  0.00    -0.287 OA
ATOM      3  C7  UNK     1      42.319  24.501  12.938  1.00  0.00     0.110 A 
ATOM      4  C8  UNK     1      40.997  24.279  12.555  1.00  0.00     0.078 A 
ATOM      5  C9  UNK     1      42.768  25.799  13.187  1.00  0.00     0.134 A 
ATOM      6  C10 UNK     1      40.122  25.359  12.422  1.00  0.00     0.096 A 
ATOM      7  C11 UNK     1      40.573  26.654  12.671  1.00  0.00     0.084 A 
ATOM      8  C12 UNK     1      41.896  26.880  13.055  1.00  0.00     0.118 A 
ATOM      9  C13 UNK     1      39.630  27.773  12.522  1.00  0.00     0.190 A 
ATOM     10  C14 UNK     1      37.941  26.131  11.910  1.00  0.00     0.090 A 
ATOM     11  C15 UNK     1      38.255  27.419  12.116  1.00  0.00     0.094 A 
ENDROOT
BRANCH   3  12
ATOM     12  O2  UNK     1      43.166  23.439  13.065  1.00  0.00    -0.315 OA
BRANCH  12  13
ATOM     13  C4  UNK     1      43.507  22.746  11.864  1.00  0.00     0.299 C 
ATOM     14  O1  UNK     1      43.228  21.356  12.015  1.00  0.00    -0.340 OA
ATOM     15  C5  UNK     1      43.528  20.613  10.839  1.00  0.00     0.253 C 
ATOM     16  C3  UNK     1      45.013  20.687  10.507  1.00  0.00     0.189 C 
ATOM     17  C1  UNK     1      45.473  22.142  10.402  1.00  0.00     0.183 C 
ATOM     18  C2  UNK     1      44.997  22.965  11.599  1.00  0.00     0.205 C 
BRANCH  15  19
ATOM     19  C6  UNK     1      43.130  19.219  11.202  1.00  0.00     0.172 C 
ATOM     20  O7  UNK     1      43.620  18.564  12.110  1.00  0.00    -0.648 OA
BRANCH  19  21
ATOM     21  O6  UNK     1      42.147  18.773  10.383  1.00  0.00    -0.774 OA
ATOM     22  H10 UNK     1      41.754  17.934  10.705  1.00  0.00     0.167 HD
ENDBRANCH  19  21
ENDBRANCH  15  19
BRANCH  16  23
ATOM     23  O5  UNK     1      45.236  20.037   9.257  1.00  0.00    -0.390 OA
ATOM     24  H8  UNK     1      44.371  19.867   8.847  1.00  0.00     0.210 HD
ENDBRANCH  16  23
BRANCH  17  25
ATOM     25  O3  UNK     1      46.901  22.152  10.355  1.00  0.00    -0.390 OA
ATOM     26  H6  UNK     1      47.165  22.301   9.432  1.00  0.00     0.210 HD
ENDBRANCH  17  25
BRANCH  18  27
ATOM     27  O4  UNK     1      45.205  24.352  11.334  1.00  0.00    -0.388 OA
ATOM     28  H7  UNK     1      45.096  24.488  10.378  1.00  0.00     0.210 HD
ENDBRANCH  18  27
ENDBRANCH  12  13
ENDBRANCH   3  12
BRANCH   5  29
ATOM     29  O9  UNK     1      44.064  26.008  13.561  1.00  0.00    -0.356 OA
ATOM     30  H12 UNK     1      44.355  26.863  13.199  1.00  0.00     0.218 HD
ENDBRANCH   5  29
BRANCH   8  31
ATOM     31  O10 UNK     1      42.371  28.133  13.307  1.00  0.00    -0.357 OA
ATOM     32  H13 UNK     1      42.717  28.539  12.498  1.00  0.00     0.217 HD
ENDBRANCH   8  31
BRANCH  10  33
ATOM     33  C16 UNK     1      36.585  25.718  11.493  1.00  0.00    -0.002 A 
ATOM     34  C17 UNK     1      35.935  24.675  12.157  1.00  0.00     0.014 A 
ATOM     35  C19 UNK     1      34.654  24.286  11.764  1.00  0.00     0.001 A 
ATOM     36  C21 UNK     1      34.019  24.939  10.707  1.00  0.00     0.000 A 
ATOM     37  C20 UNK     1      34.666  25.980  10.042  1.00  0.00     0.001 A 
ATOM     38  C18 UNK     1      35.947  26.369  10.435  1.00  0.00     0.014 A 
ENDBRANCH  10  33
TORSDOF 10
ENDMDL
MODEL 4
REMARK VINA RESULT:      -6.2      2.263      3.037
REMARK  10 active torsions:
REMARK  status: ('A' for Active; 'I' for Inactive)
REMARK    1  A    between atoms: O2_2  and  C4_15 
REMARK    2  A    between atoms: O2_2  and  C7_18 
REMARK    3  A    between atoms: O3_3  and  C1_12 
REMARK    4  A    between atoms: O4_4  and  C2_13 
REMARK    5  A    between atoms: O5_5  and  C3_14 
REMARK    6  A    between atoms: O6_6  and  C6_17 
REMARK    7  A    between atoms: O9_9  and  C9_20 
REMARK    8  A    between atoms: O10_10  and  C12_23 
REMARK    9  A    between atoms: C5_16  and  C6_17 
REMARK   10  A    between atoms: C14_25  and  C16_27 
ROOT
ATOM      1  O8  UNK     1      41.047  23.124  11.771  1.00  0.00    -0.309 OA
ATOM      2  O11 UNK     1      38.511  20.631  13.760  1.00  0.00    -0.287 OA
ATOM      3  C7  UNK     1      42.616  19.942  10.938  1.00  0.00     0.110 A 
ATOM      4  C8  UNK     1      42.353  21.310  11.008  1.00  0.00     0.078 A 
ATOM      5  C9  UNK     1      41.785  19.034  11.596  1.00  0.00     0.134 A 
ATOM      6  C10 UNK     1      41.255  21.769  11.738  1.00  0.00     0.096 A 
ATOM      7  C11 UNK     1      40.427  20.860  12.394  1.00  0.00     0.084 A 
ATOM      8  C12 UNK     1      40.687  19.489  12.326  1.00  0.00     0.118 A 
ATOM      9  C13 UNK     1      39.278  21.371  13.157  1.00  0.00     0.190 A 
ATOM     10  C14 UNK     1      39.959  23.608  12.482  1.00  0.00     0.090 A 
ATOM     11  C15 UNK     1      39.095  22.836  13.159  1.00  0.00     0.094 A 
ENDROOT
BRANCH   3  12
ATOM     12  O2  UNK     1      43.691  19.504  10.222  1.00  0.00    -0.315 OA
BRANCH  12  13
ATOM     13  C4  UNK     1      44.978  19.915  10.685  1.00  0.00     0.299 C 
ATOM     14  O1  UNK     1      45.766  20.360   9.583  1.00  0.00    -0.340 OA
ATOM     15  C5  UNK     1      47.056  20.805   9.986  1.00  0.00     0.253 C 
ATOM     16  C3  UNK     1      47.856  19.670  10.614  1.00  0.00     0.189 C 
ATOM     17  C1  UNK     1      47.080  19.035  11.768  1.00  0.00     0.183 C 
ATOM     18  C2  UNK     1      45.641  18.716  11.363  1.00  0.00     0.205 C 
BRANCH  15  19
ATOM     19  C6  UNK     1      47.680  21.253   8.704  1.00  0.00     0.172 C 
ATOM     20  O7  UNK     1      48.881  21.280   8.479  1.00  0.00    -0.648 OA
BRANCH  19  21
ATOM     21  O6  UNK     1      46.729  21.634   7.816  1.00  0.00    -0.774 OA
ATOM     22  H10 UNK     1      46.129  22.314   8.190  1.00  0.00     0.167 HD
ENDBRANCH  19  21
ENDBRANCH  15  19
BRANCH  16  23
ATOM     23  O5  UNK     1      49.084  20.197  11.113  1.00  0.00    -0.390 OA
ATOM     24  H8  UNK     1      49.729  20.200  10.384  1.00  0.00     0.210 HD
ENDBRANCH  16  23
BRANCH  17  25
ATOM     25  O3  UNK     1      47.749  17.828  12.139  1.00  0.00    -0.390 OA
ATOM     26  H6  UNK     1      48.499  18.069  12.708  1.00  0.00     0.210 HD
ENDBRANCH  17  25
BRANCH  18  27
ATOM     27  O4  UNK     1      44.883  18.385  12.528  1.00  0.00    -0.388 OA
ATOM     28  H7  UNK     1      44.899  17.419  12.625  1.00  0.00     0.210 HD
ENDBRANCH  18  27
ENDBRANCH  12  13
ENDBRANCH   3  12
BRANCH   5  29
ATOM     29  O9  UNK     1      42.050  17.697  11.523  1.00  0.00    -0.356 OA
ATOM     30  H12 UNK     1      41.871  17.299  12.393  1.00  0.00     0.218 HD
ENDBRANCH   5  29
BRANCH   8  31
ATOM     31  O10 UNK     1      39.899  18.572  12.955  1.00  0.00    -0.357 OA
ATOM     32  H13 UNK     1      39.582  18.915  13.804  1.00  0.00     0.217 HD
ENDBRANCH   8  31
BRANCH  10  33
ATOM     33  C16 UNK     1      39.832  25.079  12.455  1.00  0.00    -0.002 A 
ATOM     34  C17 UNK     1      38.576  25.672  12.296  1.00  0.00     0.014 A 
ATOM     35  C19 UNK     1      38.456  27.061  12.272  1.00  0.00     0.001 A 
ATOM     36  C21 UNK     1      39.589  27.863  12.407  1.00  0.00     0.000 A 
ATOM     37  C20 UNK     1      40.845  27.275  12.566  1.00  0.00     0.001 A 
ATOM     38  C18 UNK     1      40.965  25.885  12.591  1.00  0.00     0.014 A 
ENDBRANCH  10  33
TORSDOF 10
ENDMDL
MODEL 5
REMARK VINA RESULT:      -6.2      3.005      5.334
REMARK  10 active torsions:
REMARK  status: ('A' for Active; 'I' for Inactive)
REMARK    1  A    between atoms: O2_2  and  C4_15 
REMARK    2  A    between atoms: O2_2  and  C7_18 
REMARK    3  A    between atoms: O3_3  and  C1_12 
REMARK    4  A    between atoms: O4_4  and  C2_13 
REMARK    5  A    between atoms: O5_5  and  C3_14 
REMARK    6  A    between atoms: O6_6  and  C6_17 
REMARK    7  A    between atoms: O9_9  and  C9_20 
REMARK    8  A    between atoms: O10_10  and  C12_23 
REMARK    9  A    between atoms: C5_16  and  C6_17 
REMARK   10  A    between atoms: C14_25  and  C16_27 
ROOT
ATOM      1  O8  UNK     1      38.241  25.429  12.077  1.00  0.00    -0.309 OA
ATOM      2  O11 UNK     1      39.904  29.109  12.623  1.00  0.00    -0.287 OA
ATOM      3  C7  UNK     1      41.596  24.393  13.052  1.00  0.00     0.110 A 
ATOM      4  C8  UNK     1      40.259  24.348  12.657  1.00  0.00     0.078 A 
ATOM      5  C9  UNK     1      42.225  25.622  13.258  1.00  0.00     0.134 A 
ATOM      6  C10 UNK     1      39.552  25.536  12.467  1.00  0.00     0.096 A 
ATOM      7  C11 UNK     1      40.183  26.762  12.673  1.00  0.00     0.084 A 
ATOM      8  C12 UNK     1      41.521  26.811  13.069  1.00  0.00     0.118 A 
ATOM      9  C13 UNK     1      39.414  27.999  12.464  1.00  0.00     0.190 A 
ATOM     10  C14 UNK     1      37.511  26.593  11.888  1.00  0.00     0.090 A 
ATOM     11  C15 UNK     1      38.006  27.830  12.049  1.00  0.00     0.094 A 
ENDROOT
BRANCH   3  12
ATOM     12  O2  UNK     1      42.279  23.226  13.235  1.00  0.00    -0.315 OA
BRANCH  12  13
ATOM     13  C4  UNK     1      42.138  22.236  12.215  1.00  0.00     0.299 C 
ATOM     14  O1  UNK     1      41.403  21.125  12.721  1.00  0.00    -0.340 OA
ATOM     15  C5  UNK     1      41.210  20.112  11.741  1.00  0.00     0.253 C 
ATOM     16  C3  UNK     1      42.543  19.532  11.283  1.00  0.00     0.189 C 
ATOM     17  C1  UNK     1      43.475  20.640  10.791  1.00  0.00     0.183 C 
ATOM     18  C2  UNK     1      43.539  21.798  11.787  1.00  0.00     0.205 C 
BRANCH  15  19
ATOM     19  C6  UNK     1      40.400  19.085  12.462  1.00  0.00     0.172 C 
ATOM     20  O7  UNK     1      40.792  17.967  12.765  1.00  0.00    -0.648 OA
BRANCH  19  21
ATOM     21  O6  UNK     1      39.161  19.559  12.737  1.00  0.00    -0.774 OA
ATOM     22  H10 UNK     1      39.001  19.632  13.702  1.00  0.00     0.167 HD
ENDBRANCH  19  21
ENDBRANCH  15  19
BRANCH  16  23
ATOM     23  O5  UNK     1      42.302  18.618  10.215  1.00  0.00    -0.390 OA
ATOM     24  H8  UNK     1      41.655  19.023   9.611  1.00  0.00     0.210 HD
ENDBRANCH  16  23
BRANCH  17  25
ATOM     25  O3  UNK     1      44.780  20.080  10.628  1.00  0.00    -0.390 OA
ATOM     26  H6  UNK     1      45.041  20.204   9.701  1.00  0.00     0.210 HD
ENDBRANCH  17  25
BRANCH  18  27
ATOM     27  O4  UNK     1      44.189  22.913  11.176  1.00  0.00    -0.388 OA
ATOM     28  H7  UNK     1      43.561  23.654  11.171  1.00  0.00     0.210 HD
ENDBRANCH  18  27
ENDBRANCH  12  13
ENDBRANCH   3  12
BRANCH   5  29
ATOM     29  O9  UNK     1      43.534  25.656  13.645  1.00  0.00    -0.356 OA
ATOM     30  H12 UNK     1      43.808  26.587  13.719  1.00  0.00     0.218 HD
ENDBRANCH   5  29
BRANCH   8  31
ATOM     31  O10 UNK     1      42.170  27.991  13.279  1.00  0.00    -0.357 OA
ATOM     32  H13 UNK     1      41.797  28.456  14.044  1.00  0.00     0.217 HD
ENDBRANCH   8  31
BRANCH  10  33
ATOM     33  C16 UNK     1      36.115  26.363  11.466  1.00  0.00    -0.002 A 
ATOM     34  C17 UNK     1      35.117  26.156  12.423  1.00  0.00     0.014 A 
ATOM     35  C19 UNK     1      33.798  25.940  12.024  1.00  0.00     0.001 A 
ATOM     36  C21 UNK     1      33.472  25.932  10.668  1.00  0.00     0.000 A 
ATOM     37  C20 UNK     1      34.465  26.138   9.710  1.00  0.00     0.001 A 
ATOM     38  C18 UNK     1      35.784  26.354  10.109  1.00  0.00     0.014 A 
ENDBRANCH  10  33
TORSDOF 10
ENDMDL
MODEL 6
REMARK VINA RESULT:      -6.0      3.641      9.439
REMARK  10 active torsions:
REMARK  status: ('A' for Active; 'I' for Inactive)
REMARK    1  A    between atoms: O2_2  and  C4_15 
REMARK    2  A    between atoms: O2_2  and  C7_18 
REMARK    3  A    between atoms: O3_3  and  C1_12 
REMARK    4  A    between atoms: O4_4  and  C2_13 
REMARK    5  A    between atoms: O5_5  and  C3_14 
REMARK    6  A    between atoms: O6_6  and  C6_17 
REMARK    7  A    between atoms: O9_9  and  C9_20 
REMARK    8  A    between atoms: O10_10  and  C12_23 
REMARK    9  A    between atoms: C5_16  and  C6_17 
REMARK   10  A    between atoms: C14_25  and  C16_27 
ROOT
ATOM      1  O8  UNK     1      40.847  23.493  11.937  1.00  0.00    -0.309 OA
ATOM      2  O11 UNK     1      43.662  26.435  12.066  1.00  0.00    -0.287 OA
ATOM      3  C7  UNK     1      38.693  26.295  12.825  1.00  0.00     0.110 A 
ATOM      4  C8  UNK     1      39.127  25.009  12.506  1.00  0.00     0.078 A 
ATOM      5  C9  UNK     1      39.606  27.349  12.885  1.00  0.00     0.134 A 
ATOM      6  C10 UNK     1      40.479  24.778  12.245  1.00  0.00     0.096 A 
ATOM      7  C11 UNK     1      41.389  25.831  12.306  1.00  0.00     0.084 A 
ATOM      8  C12 UNK     1      40.958  27.121  12.625  1.00  0.00     0.118 A 
ATOM      9  C13 UNK     1      42.808  25.559  12.028  1.00  0.00     0.190 A 
ATOM     10  C14 UNK     1      42.182  23.235  11.666  1.00  0.00     0.090 A 
ATOM     11  C15 UNK     1      43.152  24.162  11.698  1.00  0.00     0.094 A 
ENDROOT
BRANCH   3  12
ATOM     12  O2  UNK     1      37.370  26.510  13.078  1.00  0.00    -0.315 OA
BRANCH  12  13
ATOM     13  C4  UNK     1      36.451  25.573  12.516  1.00  0.00     0.299 C 
ATOM     14  O1  UNK     1      35.713  26.192  11.466  1.00  0.00    -0.340 OA
ATOM     15  C5  UNK     1      34.793  25.298  10.850  1.00  0.00     0.253 C 
ATOM     16  C3  UNK     1      33.743  24.821  11.846  1.00  0.00     0.189 C 
ATOM     17  C1  UNK     1      34.406  24.206  13.079  1.00  0.00     0.183 C 
ATOM     18  C2  UNK     1      35.509  25.111  13.628  1.00  0.00     0.205 C 
BRANCH  15  19
ATOM     19  C6  UNK     1      34.172  26.130   9.776  1.00  0.00     0.172 C 
ATOM     20  O7  UNK     1      32.971  26.300   9.625  1.00  0.00    -0.648 OA
BRANCH  19  21
ATOM     21  O6  UNK     1      35.125  26.675   8.981  1.00  0.00    -0.774 OA
ATOM     22  H10 UNK     1      34.842  27.536   8.605  1.00  0.00     0.167 HD
ENDBRANCH  19  21
ENDBRANCH  15  19
BRANCH  16  23
ATOM     23  O5  UNK     1      32.929  23.834  11.214  1.00  0.00    -0.390 OA
ATOM     24  H8  UNK     1      32.003  24.129  11.265  1.00  0.00     0.210 HD
ENDBRANCH  16  23
BRANCH  17  25
ATOM     25  O3  UNK     1      33.400  24.022  14.076  1.00  0.00    -0.390 OA
ATOM     26  H6  UNK     1      33.210  24.890  14.468  1.00  0.00     0.210 HD
ENDBRANCH  17  25
BRANCH  18  27
ATOM     27  O4  UNK     1      36.275  24.391  14.594  1.00  0.00    -0.388 OA
ATOM     28  H7  UNK     1      35.958  23.473  14.597  1.00  0.00     0.210 HD
ENDBRANCH  18  27
ENDBRANCH  12  13
ENDBRANCH   3  12
BRANCH   5  29
ATOM     29  O9  UNK     1      39.173  28.604  13.199  1.00  0.00    -0.356 OA
ATOM     30  H12 UNK     1      39.950  29.178  13.315  1.00  0.00     0.218 HD
ENDBRANCH   5  29
BRANCH   8  31
ATOM     31  O10 UNK     1      41.819  28.175  12.693  1.00  0.00    -0.357 OA
ATOM     32  H13 UNK     1      42.387  28.105  13.476  1.00  0.00     0.217 HD
ENDBRANCH   8  31
BRANCH  10  33
ATOM     33  C16 UNK     1      42.468  21.820  11.351  1.00  0.00    -0.002 A 
ATOM     34  C17 UNK     1      41.439  20.875  11.373  1.00  0.00     0.014 A 
ATOM     35  C19 UNK     1      41.710  19.539  11.075  1.00  0.00     0.001 A 
ATOM     36  C21 UNK     1      43.008  19.145  10.753  1.00  0.00     0.000 A 
ATOM     37  C20 UNK     1      44.037  20.086  10.730  1.00  0.00     0.001 A 
ATOM     38  C18 UNK     1      43.767  21.422  11.028  1.00  0.00     0.014 A 
ENDBRANCH  10  33
TORSDOF 10
ENDMDL
MODEL 7
REMARK VINA RESULT:      -5.9      2.407      4.872
REMARK  10 active torsions:
REMARK  status: ('A' for Active; 'I' for Inactive)
REMARK    1  A    between atoms: O2_2  and  C4_15 
REMARK    2  A    between atoms: O2_2  and  C7_18 
REMARK    3  A    between atoms: O3_3  and  C1_12 
REMARK    4  A    between atoms: O4_4  and  C2_13 
REMARK    5  A    between atoms: O5_5  and  C3_14 
REMARK    6  A    between atoms: O6_6  and  C6_17 
REMARK    7  A    between atoms: O9_9  and  C9_20 
REMARK    8  A    between atoms: O10_10  and  C12_23 
REMARK    9  A    between atoms: C5_16  and  C6_17 
REMARK   10  A    between atoms: C14_25  and  C16_27 
ROOT
ATOM      1  O8  UNK     1      41.323  21.173  11.589  1.00  0.00    -0.309 OA
ATOM      2  O11 UNK     1      40.592  17.457  13.091  1.00  0.00    -0.287 OA
ATOM      3  C7  UNK     1      44.735  19.895  11.614  1.00  0.00     0.110 A 
ATOM      4  C8  UNK     1      43.640  20.741  11.442  1.00  0.00     0.078 A 
ATOM      5  C9  UNK     1      44.554  18.608  12.123  1.00  0.00     0.134 A 
ATOM      6  C10 UNK     1      42.360  20.297  11.780  1.00  0.00     0.096 A 
ATOM      7  C11 UNK     1      42.182  19.012  12.288  1.00  0.00     0.084 A 
ATOM      8  C12 UNK     1      43.276  18.162  12.461  1.00  0.00     0.118 A 
ATOM      9  C13 UNK     1      40.823  18.570  12.637  1.00  0.00     0.190 A 
ATOM     10  C14 UNK     1      40.040  20.757  11.909  1.00  0.00     0.090 A 
ATOM     11  C15 UNK     1      39.740  19.548  12.410  1.00  0.00     0.094 A 
ENDROOT
BRANCH   3  12
ATOM     12  O2  UNK     1      45.981  20.339  11.280  1.00  0.00    -0.315 OA
BRANCH  12  13
ATOM     13  C4  UNK     1      46.585  19.744  10.131  1.00  0.00     0.299 C 
ATOM     14  O1  UNK     1      47.613  18.844  10.538  1.00  0.00    -0.340 OA
ATOM     15  C5  UNK     1      48.239  18.201   9.434  1.00  0.00     0.253 C 
ATOM     16  C3  UNK     1      48.932  19.215   8.531  1.00  0.00     0.189 C 
ATOM     17  C1  UNK     1      47.954  20.303   8.086  1.00  0.00     0.183 C 
ATOM     18  C2  UNK     1      47.169  20.866   9.271  1.00  0.00     0.205 C 
BRANCH  15  19
ATOM     19  C6  UNK     1      49.233  17.294  10.082  1.00  0.00     0.172 C 
ATOM     20  O7  UNK     1      49.596  17.369  11.247  1.00  0.00    -0.648 OA
BRANCH  19  21
ATOM     21  O6  UNK     1      49.686  16.371   9.200  1.00  0.00    -0.774 OA
ATOM     22  H10 UNK     1      48.966  15.788   8.877  1.00  0.00     0.167 HD
ENDBRANCH  19  21
ENDBRANCH  15  19
BRANCH  16  23
ATOM     23  O5  UNK     1      49.430  18.536   7.380  1.00  0.00    -0.390 OA
ATOM     24  H8  UNK     1      49.571  17.604   7.616  1.00  0.00     0.210 HD
ENDBRANCH  16  23
BRANCH  17  25
ATOM     25  O3  UNK     1      48.707  21.350   7.473  1.00  0.00    -0.390 OA
ATOM     26  H6  UNK     1      48.123  21.806   6.845  1.00  0.00     0.210 HD
ENDBRANCH  17  25
BRANCH  18  27
ATOM     27  O4  UNK     1      46.091  21.667   8.788  1.00  0.00    -0.388 OA
ATOM     28  H7  UNK     1      46.162  21.703   7.820  1.00  0.00     0.210 HD
ENDBRANCH  18  27
ENDBRANCH  12  13
ENDBRANCH   3  12
BRANCH   5  29
ATOM     29  O9  UNK     1      45.631  17.787  12.288  1.00  0.00    -0.356 OA
ATOM     30  H12 UNK     1      46.125  18.081  13.073  1.00  0.00     0.218 HD
ENDBRANCH   5  29
BRANCH   8  31
ATOM     31  O10 UNK     1      43.139  16.899  12.955  1.00  0.00    -0.357 OA
ATOM     32  H13 UNK     1      43.528  16.249  12.350  1.00  0.00     0.217 HD
ENDBRANCH   8  31
BRANCH  10  33
ATOM     33  C16 UNK     1      39.000  21.779  11.670  1.00  0.00    -0.002 A 
ATOM     34  C17 UNK     1      38.024  21.571  10.692  1.00  0.00     0.014 A 
ATOM     35  C19 UNK     1      37.041  22.535  10.467  1.00  0.00     0.001 A 
ATOM     36  C21 UNK     1      37.031  23.710  11.219  1.00  0.00     0.000 A 
ATOM     37  C20 UNK     1      38.004  23.921  12.196  1.00  0.00     0.001 A 
ATOM     38  C18 UNK     1      38.986  22.956  12.421  1.00  0.00     0.014 A 
ENDBRANCH  10  33
TORSDOF 10
ENDMDL
MODEL 8
REMARK VINA RESULT:      -5.9      3.410      7.511
REMARK  10 active torsions:
REMARK  status: ('A' for Active; 'I' for Inactive)
REMARK    1  A    between atoms: O2_2  and  C4_15 
REMARK    2  A    between atoms: O2_2  and  C7_18 
REMARK    3  A    between atoms: O3_3  and  C1_12 
REMARK    4  A    between atoms: O4_4  and  C2_13 
REMARK    5  A    between atoms: O5_5  and  C3_14 
REMARK    6  A    between atoms: O6_6  and  C6_17 
REMARK    7  A    between atoms: O9_9  and  C9_20 
REMARK    8  A    between atoms: O10_10  and  C12_23 
REMARK    9  A    between atoms: C5_16  and  C6_17 
REMARK   10  A    between atoms: C14_25  and  C16_27 
ROOT
ATOM      1  O8  UNK     1      42.032  18.455  13.783  1.00  0.00    -0.309 OA
ATOM      2  O11 UNK     1      38.094  18.798  14.772  1.00  0.00    -0.287 OA
ATOM      3  C7  UNK     1      41.193  21.361  11.752  1.00  0.00     0.110 A 
ATOM      4  C8  UNK     1      41.912  20.322  12.343  1.00  0.00     0.078 A 
ATOM      5  C9  UNK     1      39.840  21.535  12.049  1.00  0.00     0.134 A 
ATOM      6  C10 UNK     1      41.274  19.457  13.234  1.00  0.00     0.096 A 
ATOM      7  C11 UNK     1      39.923  19.633  13.529  1.00  0.00     0.084 A 
ATOM      8  C12 UNK     1      39.200  20.672  12.938  1.00  0.00     0.118 A 
ATOM      9  C13 UNK     1      39.277  18.705  14.469  1.00  0.00     0.190 A 
ATOM     10  C14 UNK     1      41.427  17.584  14.677  1.00  0.00     0.090 A 
ATOM     11  C15 UNK     1      40.136  17.646  15.036  1.00  0.00     0.094 A 
ENDROOT
BRANCH   3  12
ATOM     12  O2  UNK     1      41.825  22.201  10.883  1.00  0.00    -0.315 OA
BRANCH  12  13
ATOM     13  C4  UNK     1      42.388  23.390  11.439  1.00  0.00     0.299 C 
ATOM     14  O1  UNK     1      41.344  24.265  11.862  1.00  0.00    -0.340 OA
ATOM     15  C5  UNK     1      41.845  25.461  12.447  1.00  0.00     0.253 C 
ATOM     16  C3  UNK     1      42.655  26.267  11.438  1.00  0.00     0.189 C 
ATOM     17  C1  UNK     1      43.768  25.413  10.831  1.00  0.00     0.183 C 
ATOM     18  C2  UNK     1      43.238  24.060  10.358  1.00  0.00     0.205 C 
BRANCH  15  19
ATOM     19  C6  UNK     1      40.605  26.194  12.845  1.00  0.00     0.172 C 
ATOM     20  O7  UNK     1      40.580  27.270  13.424  1.00  0.00    -0.648 OA
BRANCH  19  21
ATOM     21  O6  UNK     1      39.500  25.499  12.478  1.00  0.00    -0.774 OA
ATOM     22  H10 UNK     1      38.819  25.495  13.184  1.00  0.00     0.167 HD
ENDBRANCH  19  21
ENDBRANCH  15  19
BRANCH  16  23
ATOM     23  O5  UNK     1      43.237  27.385  12.107  1.00  0.00    -0.390 OA
ATOM     24  H8  UNK     1      44.162  27.461  11.818  1.00  0.00     0.210 HD
ENDBRANCH  16  23
BRANCH  17  25
ATOM     25  O3  UNK     1      44.316  26.125   9.720  1.00  0.00    -0.390 OA
ATOM     26  H6  UNK     1      43.701  26.844   9.498  1.00  0.00     0.210 HD
ENDBRANCH  17  25
BRANCH  18  27
ATOM     27  O4  UNK     1      44.337  23.199  10.057  1.00  0.00    -0.388 OA
ATOM     28  H7  UNK     1      44.019  22.283  10.118  1.00  0.00     0.210 HD
ENDBRANCH  18  27
ENDBRANCH  12  13
ENDBRANCH   3  12
BRANCH   5  29
ATOM     29  O9  UNK     1      39.144  22.554  11.465  1.00  0.00    -0.356 OA
ATOM     30  H12 UNK     1      38.767  22.230  10.629  1.00  0.00     0.218 HD
ENDBRANCH   5  29
BRANCH   8  31
ATOM     31  O10 UNK     1      37.879  20.874  13.203  1.00  0.00    -0.357 OA
ATOM     32  H13 UNK     1      37.711  21.802  13.429  1.00  0.00     0.217 HD
ENDBRANCH   8  31
BRANCH  10  33
ATOM     33  C16 UNK     1      42.331  16.542  15.205  1.00  0.00    -0.002 A 
ATOM     34  C17 UNK     1      41.831  15.278  15.529  1.00  0.00     0.014 A 
ATOM     35  C19 UNK     1      42.685  14.293  16.026  1.00  0.00     0.001 A 
ATOM     36  C21 UNK     1      44.041  14.568  16.199  1.00  0.00     0.000 A 
ATOM     37  C20 UNK     1      44.544  15.829  15.876  1.00  0.00     0.001 A 
ATOM     38  C18 UNK     1      43.690  16.813  15.380  1.00  0.00     0.014 A 
ENDBRANCH  10  33
TORSDOF 10
ENDMDL
MODEL 9
REMARK VINA RESULT:      -5.9      2.616      5.585
REMARK  10 active torsions:
REMARK  status: ('A' for Active; 'I' for Inactive)
REMARK    1  A    between atoms: O2_2  and  C4_15 
REMARK    2  A    between atoms: O2_2  and  C7_18 
REMARK    3  A    between atoms: O3_3  and  C1_12 
REMARK    4  A    between atoms: O4_4  and  C2_13 
REMARK    5  A    between atoms: O5_5  and  C3_14 
REMARK    6  A    between atoms: O6_6  and  C6_17 
REMARK    7  A    between atoms: O9_9  and  C9_20 
REMARK    8  A    between atoms: O10_10  and  C12_23 
REMARK    9  A    between atoms: C5_16  and  C6_17 
REMARK   10  A    between atoms: C14_25  and  C16_27 
ROOT
ATOM      1  O8  UNK     1      42.190  24.537  11.718  1.00  0.00    -0.309 OA
ATOM      2  O11 UNK     1      44.929  25.904  14.407  1.00  0.00    -0.287 OA
ATOM      3  C7  UNK     1      44.987  22.381  10.819  1.00  0.00     0.110 A 
ATOM      4  C8  UNK     1      43.725  22.975  10.835  1.00  0.00     0.078 A 
ATOM      5  C9  UNK     1      45.971  22.802  11.716  1.00  0.00     0.134 A 
ATOM      6  C10 UNK     1      43.448  23.991  11.750  1.00  0.00     0.096 A 
ATOM      7  C11 UNK     1      44.432  24.410  12.644  1.00  0.00     0.084 A 
ATOM      8  C12 UNK     1      45.697  23.818  12.632  1.00  0.00     0.118 A 
ATOM      9  C13 UNK     1      44.113  25.485  13.597  1.00  0.00     0.190 A 
ATOM     10  C14 UNK     1      41.884  25.544  12.621  1.00  0.00     0.090 A 
ATOM     11  C15 UNK     1      42.745  26.037  13.524  1.00  0.00     0.094 A 
ENDROOT
BRANCH   3  12
ATOM     12  O2  UNK     1      45.248  21.388   9.921  1.00  0.00    -0.315 OA
BRANCH  12  13
ATOM     13  C4  UNK     1      44.679  20.108  10.201  1.00  0.00     0.299 C 
ATOM     14  O1  UNK     1      43.303  20.257  10.541  1.00  0.00    -0.340 OA
ATOM     15  C5  UNK     1      42.674  19.008  10.810  1.00  0.00     0.253 C 
ATOM     16  C3  UNK     1      43.310  18.322  12.012  1.00  0.00     0.189 C 
ATOM     17  C1  UNK     1      44.819  18.176  11.818  1.00  0.00     0.183 C 
ATOM     18  C2  UNK     1      45.453  19.492  11.367  1.00  0.00     0.205 C 
BRANCH  15  19
ATOM     19  C6  UNK     1      41.259  19.392  11.099  1.00  0.00     0.172 C 
ATOM     20  O7  UNK     1      40.624  19.042  12.083  1.00  0.00    -0.648 OA
BRANCH  19  21
ATOM     21  O6  UNK     1      40.767  20.184  10.115  1.00  0.00    -0.774 OA
ATOM     22  H10 UNK     1      40.529  21.076  10.447  1.00  0.00     0.167 HD
ENDBRANCH  19  21
ENDBRANCH  15  19
BRANCH  16  23
ATOM     23  O5  UNK     1      42.732  17.026  12.158  1.00  0.00    -0.390 OA
ATOM     24  H8  UNK     1      41.848  17.132  12.550  1.00  0.00     0.210 HD
ENDBRANCH  16  23
BRANCH  17  25
ATOM     25  O3  UNK     1      45.389  17.776  13.065  1.00  0.00    -0.390 OA
ATOM     26  H6  UNK     1      44.863  18.181  13.774  1.00  0.00     0.210 HD
ENDBRANCH  17  25
BRANCH  18  27
ATOM     27  O4  UNK     1      46.793  19.250  10.937  1.00  0.00    -0.388 OA
ATOM     28  H7  UNK     1      47.204  20.112  10.756  1.00  0.00     0.210 HD
ENDBRANCH  18  27
ENDBRANCH  12  13
ENDBRANCH   3  12
BRANCH   5  29
ATOM     29  O9  UNK     1      47.203  22.216  11.694  1.00  0.00    -0.356 OA
ATOM     30  H12 UNK     1      47.727  22.574  12.431  1.00  0.00     0.218 HD
ENDBRANCH   5  29
BRANCH   8  31
ATOM     31  O10 UNK     1      46.683  24.202  13.491  1.00  0.00    -0.357 OA
ATOM     32  H13 UNK     1      47.480  23.666  13.361  1.00  0.00     0.217 HD
ENDBRANCH   8  31
BRANCH  10  33
ATOM     33  C16 UNK     1      40.506  26.063  12.496  1.00  0.00    -0.002 A 
ATOM     34  C17 UNK     1      40.285  27.434  12.336  1.00  0.00     0.014 A 
ATOM     35  C19 UNK     1      38.984  27.924  12.218  1.00  0.00     0.001 A 
ATOM     36  C21 UNK     1      37.901  27.046  12.258  1.00  0.00     0.000 A 
ATOM     37  C20 UNK     1      38.119  25.677  12.417  1.00  0.00     0.001 A 
ATOM     38  C18 UNK     1      39.420  25.187  12.536  1.00  0.00     0.014 A 
ENDBRANCH  10  33
TORSDOF 10
ENDMDL
MODEL 10
REMARK VINA RESULT:      -5.9      3.362      4.923
REMARK  10 active torsions:
REMARK  status: ('A' for Active; 'I' for Inactive)
REMARK    1  A    between atoms: O2_2  and  C4_15 
REMARK    2  A    between atoms: O2_2  and  C7_18 
REMARK    3  A    between atoms: O3_3  and  C1_12 
REMARK    4  A    between atoms: O4_4  and  C2_13 
REMARK    5  A    between atoms: O5_5  and  C3_14 
REMARK    6  A    between atoms: O6_6  and  C6_17 
REMARK    7  A    between atoms: O9_9  and  C9_20 
REMARK    8  A    between atoms: O10_10  and  C12_23 
REMARK    9  A    between atoms: C5_16  and  C6_17 
REMARK   10  A    between atoms: C14_25  and  C16_27 
ROOT
ATOM      1  O8  UNK     1      43.146  21.726  11.513  1.00  0.00    -0.309 OA
ATOM      2  O11 UNK     1      39.315  20.653  12.391  1.00  0.00    -0.287 OA
ATOM      3  C7  UNK     1      43.653  18.145  11.963  1.00  0.00     0.110 A 
ATOM      4  C8  UNK     1      43.897  19.496  11.712  1.00  0.00     0.078 A 
ATOM      5  C9  UNK     1      42.362  17.711  12.268  1.00  0.00     0.134 A 
ATOM      6  C10 UNK     1      42.845  20.412  11.767  1.00  0.00     0.096 A 
ATOM      7  C11 UNK     1      41.558  19.976  12.073  1.00  0.00     0.084 A 
ATOM      8  C12 UNK     1      41.309  18.625  12.324  1.00  0.00     0.118 A 
ATOM      9  C13 UNK     1      40.469  20.964  12.126  1.00  0.00     0.190 A 
ATOM     10  C14 UNK     1      42.121  22.658  11.553  1.00  0.00     0.090 A 
ATOM     11  C15 UNK     1      40.843  22.364  11.841  1.00  0.00     0.094 A 
ENDROOT
BRANCH   3  12
ATOM     12  O2  UNK     1      44.687  17.257  11.906  1.00  0.00    -0.315 OA
BRANCH  12  13
ATOM     13  C4  UNK     1      46.000  17.795  12.065  1.00  0.00     0.299 C 
ATOM     14  O1  UNK     1      46.765  17.553  10.887  1.00  0.00    -0.340 OA
ATOM     15  C5  UNK     1      48.082  18.087  10.978  1.00  0.00     0.253 C 
ATOM     16  C3  UNK     1      48.865  17.424  12.104  1.00  0.00     0.189 C 
ATOM     17  C1  UNK     1      48.108  17.531  13.427  1.00  0.00     0.183 C 
ATOM     18  C2  UNK     1      46.647  17.109  13.270  1.00  0.00     0.205 C 
BRANCH  15  19
ATOM     19  C6  UNK     1      48.677  17.761   9.647  1.00  0.00     0.172 C 
ATOM     20  O7  UNK     1      48.618  18.475   8.657  1.00  0.00    -0.648 OA
BRANCH  19  21
ATOM     21  O6  UNK     1      49.294  16.554   9.682  1.00  0.00    -0.774 OA
ATOM     22  H10 UNK     1      49.228  16.134  10.566  1.00  0.00     0.167 HD
ENDBRANCH  19  21
ENDBRANCH  15  19
BRANCH  16  23
ATOM     23  O5  UNK     1      50.125  18.081  12.233  1.00  0.00    -0.390 OA
ATOM     24  H8  UNK     1      50.736  17.475  12.686  1.00  0.00     0.210 HD
ENDBRANCH  16  23
BRANCH  17  25
ATOM     25  O3  UNK     1      48.751  16.677  14.375  1.00  0.00    -0.390 OA
ATOM     26  H6  UNK     1      48.678  15.765  14.048  1.00  0.00     0.210 HD
ENDBRANCH  17  25
BRANCH  18  27
ATOM     27  O4  UNK     1      45.918  17.480  14.440  1.00  0.00    -0.388 OA
ATOM     28  H7  UNK     1      45.574  16.665  14.843  1.00  0.00     0.210 HD
ENDBRANCH  18  27
ENDBRANCH  12  13
ENDBRANCH   3  12
BRANCH   5  29
ATOM     29  O9  UNK     1      42.132  16.388  12.512  1.00  0.00    -0.356 OA
ATOM     30  H12 UNK     1      42.910  15.882  12.219  1.00  0.00     0.218 HD
ENDBRANCH   5  29
BRANCH   8  31
ATOM     31  O10 UNK     1      40.063  18.163  12.626  1.00  0.00    -0.357 OA
ATOM     32  H13 UNK     1      39.448  18.331  11.896  1.00  0.00     0.217 HD
ENDBRANCH   8  31
BRANCH  10  33
ATOM     33  C16 UNK     1      42.555  24.041  11.268  1.00  0.00    -0.002 A 
ATOM     34  C17 UNK     1      43.344  24.311  10.147  1.00  0.00     0.014 A 
ATOM     35  C19 UNK     1      43.753  25.618   9.878  1.00  0.00     0.001 A 
ATOM     36  C21 UNK     1      43.375  26.657  10.727  1.00  0.00     0.000 A 
ATOM     37  C20 UNK     1      42.587  26.391  11.848  1.00  0.00     0.001 A 
ATOM     38  C18 UNK     1      42.178  25.084  12.117  1.00  0.00     0.014 A 
ENDBRANCH  10  33
TORSDOF 10
ENDMDL
MODEL 11
REMARK VINA RESULT:      -5.9      3.364      8.536
REMARK  10 active torsions:
REMARK  status: ('A' for Active; 'I' for Inactive)
REMARK    1  A    between atoms: O2_2  and  C4_15 
REMARK    2  A    between atoms: O2_2  and  C7_18 
REMARK    3  A    between atoms: O3_3  and  C1_12 
REMARK    4  A    between atoms: O4_4  and  C2_13 
REMARK    5  A    between atoms: O5_5  and  C3_14 
REMARK    6  A    between atoms: O6_6  and  C6_17 
REMARK    7  A    between atoms: O9_9  and  C9_20 
REMARK    8  A    between atoms: O10_10  and  C12_23 
REMARK    9  A    between atoms: C5_16  and  C6_17 
REMARK   10  A    between atoms: C14_25  and  C16_27 
ROOT
ATOM      1  O8  UNK     1      44.917  19.363  11.142  1.00  0.00    -0.309 OA
ATOM      2  O11 UNK     1      42.240  16.675  12.629  1.00  0.00    -0.287 OA
ATOM      3  C7  UNK     1      41.925  21.442  11.060  1.00  0.00     0.110 A 
ATOM      4  C8  UNK     1      43.248  21.019  10.925  1.00  0.00     0.078 A 
ATOM      5  C9  UNK     1      40.959  20.571  11.564  1.00  0.00     0.134 A 
ATOM      6  C10 UNK     1      43.602  19.721  11.297  1.00  0.00     0.096 A 
ATOM      7  C11 UNK     1      42.635  18.853  11.800  1.00  0.00     0.084 A 
ATOM      8  C12 UNK     1      41.310  19.273  11.936  1.00  0.00     0.118 A 
ATOM      9  C13 UNK     1      43.036  17.490  12.183  1.00  0.00     0.190 A 
ATOM     10  C14 UNK     1      45.300  18.082  11.510  1.00  0.00     0.090 A 
ATOM     11  C15 UNK     1      44.463  17.154  12.000  1.00  0.00     0.094 A 
ENDROOT
BRANCH   3  12
ATOM     12  O2  UNK     1      41.589  22.712  10.694  1.00  0.00    -0.315 OA
BRANCH  12  13
ATOM     13  C4  UNK     1      42.133  23.770  11.484  1.00  0.00     0.299 C 
ATOM     14  O1  UNK     1      41.100  24.367  12.265  1.00  0.00    -0.340 OA
ATOM     15  C5  UNK     1      41.586  25.418  13.093  1.00  0.00     0.253 C 
ATOM     16  C3  UNK     1      42.160  26.554  12.256  1.00  0.00     0.189 C 
ATOM     17  C1  UNK     1      43.231  26.034  11.297  1.00  0.00     0.183 C 
ATOM     18  C2  UNK     1      42.747  24.801  10.536  1.00  0.00     0.205 C 
BRANCH  15  19
ATOM     19  C6  UNK     1      40.368  25.862  13.835  1.00  0.00     0.172 C 
ATOM     20  O7  UNK     1      40.365  26.632  14.784  1.00  0.00    -0.648 OA
BRANCH  19  21
ATOM     21  O6  UNK     1      39.255  25.290  13.313  1.00  0.00    -0.774 OA
ATOM     22  H10 UNK     1      38.605  25.961  13.013  1.00  0.00     0.167 HD
ENDBRANCH  19  21
ENDBRANCH  15  19
BRANCH  16  23
ATOM     23  O5  UNK     1      42.746  27.516  13.132  1.00  0.00    -0.390 OA
ATOM     24  H8  UNK     1      42.030  28.052  13.514  1.00  0.00     0.210 HD
ENDBRANCH  16  23
BRANCH  17  25
ATOM     25  O3  UNK     1      43.539  27.076  10.370  1.00  0.00    -0.390 OA
ATOM     26  H6  UNK     1      44.226  27.635  10.770  1.00  0.00     0.210 HD
ENDBRANCH  17  25
BRANCH  18  27
ATOM     27  O4  UNK     1      43.852  24.191   9.868  1.00  0.00    -0.388 OA
ATOM     28  H7  UNK     1      43.499  23.677   9.123  1.00  0.00     0.210 HD
ENDBRANCH  18  27
ENDBRANCH  12  13
ENDBRANCH   3  12
BRANCH   5  29
ATOM     29  O9  UNK     1      39.667  20.992  11.692  1.00  0.00    -0.356 OA
ATOM     30  H12 UNK     1      39.630  21.662  12.397  1.00  0.00     0.218 HD
ENDBRANCH   5  29
BRANCH   8  31
ATOM     31  O10 UNK     1      40.338  18.451  12.425  1.00  0.00    -0.357 OA
ATOM     32  H13 UNK     1      39.766  18.927  13.046  1.00  0.00     0.217 HD
ENDBRANCH   8  31
BRANCH  10  33
ATOM     33  C16 UNK     1      46.734  17.800  11.297  1.00  0.00    -0.002 A 
ATOM     34  C17 UNK     1      47.205  16.485  11.345  1.00  0.00     0.014 A 
ATOM     35  C19 UNK     1      48.559  16.219  11.143  1.00  0.00     0.001 A 
ATOM     36  C21 UNK     1      49.447  17.265  10.891  1.00  0.00     0.000 A 
ATOM     37  C20 UNK     1      48.980  18.579  10.843  1.00  0.00     0.001 A 
ATOM     38  C18 UNK     1      47.625  18.845  11.045  1.00  0.00     0.014 A 
ENDBRANCH  10  33
TORSDOF 10
ENDMDL
MODEL 12
REMARK VINA RESULT:      -5.9      2.967      5.261
REMARK  10 active torsions:
REMARK  status: ('A' for Active; 'I' for Inactive)
REMARK    1  A    between atoms: O2_2  and  C4_15 
REMARK    2  A    between atoms: O2_2  and  C7_18 
REMARK    3  A    between atoms: O3_3  and  C1_12 
REMARK    4  A    between atoms: O4_4  and  C2_13 
REMARK    5  A    between atoms: O5_5  and  C3_14 
REMARK    6  A    between atoms: O6_6  and  C6_17 
REMARK    7  A    between atoms: O9_9  and  C9_20 
REMARK    8  A    between atoms: O10_10  and  C12_23 
REMARK    9  A    between atoms: C5_16  and  C6_17 
REMARK   10  A    between atoms: C14_25  and  C16_27 
ROOT
ATOM      1  O8  UNK     1      40.275  24.736  12.301  1.00  0.00    -0.309 OA
ATOM      2  O11 UNK     1      43.867  26.532  11.613  1.00  0.00    -0.287 OA
ATOM      3  C7  UNK     1      42.160  21.820  11.194  1.00  0.00     0.110 A 
ATOM      4  C8  UNK     1      41.119  22.628  11.650  1.00  0.00     0.078 A 
ATOM      5  C9  UNK     1      43.416  22.373  10.940  1.00  0.00     0.134 A 
ATOM      6  C10 UNK     1      41.337  23.992  11.853  1.00  0.00     0.096 A 
ATOM      7  C11 UNK     1      42.592  24.541  11.598  1.00  0.00     0.084 A 
ATOM      8  C12 UNK     1      43.637  23.735  11.141  1.00  0.00     0.118 A 
ATOM      9  C13 UNK     1      42.793  25.982  11.818  1.00  0.00     0.190 A 
ATOM     10  C14 UNK     1      40.464  26.092  12.519  1.00  0.00     0.090 A 
ATOM     11  C15 UNK     1      41.622  26.737  12.306  1.00  0.00     0.094 A 
ENDROOT
BRANCH   3  12
ATOM     12  O2  UNK     1      41.937  20.488  10.999  1.00  0.00    -0.315 OA
BRANCH  12  13
ATOM     13  C4  UNK     1      42.126  19.637  12.130  1.00  0.00     0.299 C 
ATOM     14  O1  UNK     1      43.411  19.022  12.059  1.00  0.00    -0.340 OA
ATOM     15  C5  UNK     1      43.668  18.176  13.174  1.00  0.00     0.253 C 
ATOM     16  C3  UNK     1      42.676  17.020  13.224  1.00  0.00     0.189 C 
ATOM     17  C1  UNK     1      41.238  17.539  13.214  1.00  0.00     0.183 C 
ATOM     18  C2  UNK     1      41.026  18.575  12.110  1.00  0.00     0.205 C 
BRANCH  15  19
ATOM     19  C6  UNK     1      45.054  17.681  12.917  1.00  0.00     0.172 C 
ATOM     20  O7  UNK     1      45.592  17.640  11.820  1.00  0.00    -0.648 OA
BRANCH  19  21
ATOM     21  O6  UNK     1      45.639  17.276  14.070  1.00  0.00    -0.774 OA
ATOM     22  H10 UNK     1      45.791  18.024  14.687  1.00  0.00     0.167 HD
ENDBRANCH  19  21
ENDBRANCH  15  19
BRANCH  16  23
ATOM     23  O5  UNK     1      42.896  16.280  14.423  1.00  0.00    -0.390 OA
ATOM     24  H8  UNK     1      42.869  15.333  14.203  1.00  0.00     0.210 HD
ENDBRANCH  16  23
BRANCH  17  25
ATOM     25  O3  UNK     1      40.368  16.427  12.997  1.00  0.00    -0.390 OA
ATOM     26  H6  UNK     1      40.525  16.100  12.096  1.00  0.00     0.210 HD
ENDBRANCH  17  25
BRANCH  18  27
ATOM     27  O4  UNK     1      39.771  19.227  12.306  1.00  0.00    -0.388 OA
ATOM     28  H7  UNK     1      39.858  19.805  13.082  1.00  0.00     0.210 HD
ENDBRANCH  18  27
ENDBRANCH  12  13
ENDBRANCH   3  12
BRANCH   5  29
ATOM     29  O9  UNK     1      44.430  21.575  10.493  1.00  0.00    -0.356 OA
ATOM     30  H12 UNK     1      44.276  20.670  10.819  1.00  0.00     0.218 HD
ENDBRANCH   5  29
BRANCH   8  31
ATOM     31  O10 UNK     1      44.877  24.238  10.882  1.00  0.00    -0.357 OA
ATOM     32  H13 UNK     1      45.065  25.001  11.450  1.00  0.00     0.217 HD
ENDBRANCH   8  31
BRANCH  10  33
ATOM     33  C16 UNK     1      39.257  26.797  12.996  1.00  0.00    -0.002 A 
ATOM     34  C17 UNK     1      38.690  27.817  12.227  1.00  0.00     0.014 A 
ATOM     35  C19 UNK     1      37.550  28.482  12.678  1.00  0.00     0.001 A 
ATOM     36  C21 UNK     1      36.973  28.130  13.898  1.00  0.00     0.000 A 
ATOM     37  C20 UNK     1      37.536  27.112  14.668  1.00  0.00     0.001 A 
ATOM     38  C18 UNK     1      38.677  26.447  14.217  1.00  0.00     0.014 A 
ENDBRANCH  10  33
TORSDOF 10
ENDMDL
MODEL 13
REMARK VINA RESULT:      -5.9      3.103      8.992
REMARK  10 active torsions:
REMARK  status: ('A' for Active; 'I' for Inactive)
REMARK    1  A    between atoms: O2_2  and  C4_15 
REMARK    2  A    between atoms: O2_2  and  C7_18 
REMARK    3  A    between atoms: O3_3  and  C1_12 
REMARK    4  A    between atoms: O4_4  and  C2_13 
REMARK    5  A    between atoms: O5_5  and  C3_14 
REMARK    6  A    between atoms: O6_6  and  C6_17 
REMARK    7  A    between atoms: O9_9  and  C9_20 
REMARK    8  A    between atoms: O10_10  and  C12_23 
REMARK    9  A    between atoms: C5_16  and  C6_17 
REMARK   10  A    between atoms: C14_25  and  C16_27 
ROOT
ATOM      1  O8  UNK     1      41.512  22.867  12.128  1.00  0.00    -0.309 OA
ATOM      2  O11 UNK     1      44.432  25.424  10.888  1.00  0.00    -0.287 OA
ATOM      3  C7  UNK     1      39.831  26.024  12.827  1.00  0.00     0.110 A 
ATOM      4  C8  UNK     1      40.092  24.658  12.722  1.00  0.00     0.078 A 
ATOM      5  C9  UNK     1      40.789  26.953  12.418  1.00  0.00     0.134 A 
ATOM      6  C10 UNK     1      41.313  24.222  12.206  1.00  0.00     0.096 A 
ATOM      7  C11 UNK     1      42.268  25.152  11.799  1.00  0.00     0.084 A 
ATOM      8  C12 UNK     1      42.011  26.521  11.903  1.00  0.00     0.118 A 
ATOM      9  C13 UNK     1      43.548  24.665  11.262  1.00  0.00     0.190 A 
ATOM     10  C14 UNK     1      42.714  22.405  11.613  1.00  0.00     0.090 A 
ATOM     11  C15 UNK     1      43.712  23.199  11.194  1.00  0.00     0.094 A 
ENDROOT
BRANCH   3  12
ATOM     12  O2  UNK     1      38.634  26.439  13.332  1.00  0.00    -0.315 OA
BRANCH  12  13
ATOM     13  C4  UNK     1      37.463  25.835  12.780  1.00  0.00     0.299 C 
ATOM     14  O1  UNK     1      37.793  24.562  12.230  1.00  0.00    -0.340 OA
ATOM     15  C5  UNK     1      36.658  23.899  11.684  1.00  0.00     0.253 C 
ATOM     16  C3  UNK     1      36.066  24.692  10.525  1.00  0.00     0.189 C 
ATOM     17  C1  UNK     1      35.744  26.123  10.956  1.00  0.00     0.183 C 
ATOM     18  C2  UNK     1      36.922  26.762  11.692  1.00  0.00     0.205 C 
BRANCH  15  19
ATOM     19  C6  UNK     1      37.217  22.597  11.210  1.00  0.00     0.172 C 
ATOM     20  O7  UNK     1      37.290  22.248  10.041  1.00  0.00    -0.648 OA
BRANCH  19  21
ATOM     21  O6  UNK     1      37.633  21.845  12.258  1.00  0.00    -0.774 OA
ATOM     22  H10 UNK     1      36.884  21.552  12.820  1.00  0.00     0.167 HD
ENDBRANCH  19  21
ENDBRANCH  15  19
BRANCH  16  23
ATOM     23  O5  UNK     1      34.864  24.052  10.100  1.00  0.00    -0.390 OA
ATOM     24  H8  UNK     1      35.086  23.442   9.376  1.00  0.00     0.210 HD
ENDBRANCH  16  23
BRANCH  17  25
ATOM     25  O3  UNK     1      35.446  26.882   9.783  1.00  0.00    -0.390 OA
ATOM     26  H6  UNK     1      35.556  27.822  10.003  1.00  0.00     0.210 HD
ENDBRANCH  17  25
BRANCH  18  27
ATOM     27  O4  UNK     1      36.493  27.976  12.310  1.00  0.00    -0.388 OA
ATOM     28  H7  UNK     1      37.270  28.552  12.397  1.00  0.00     0.210 HD
ENDBRANCH  18  27
ENDBRANCH  12  13
ENDBRANCH   3  12
BRANCH   5  29
ATOM     29  O9  UNK     1      40.526  28.288  12.525  1.00  0.00    -0.356 OA
ATOM     30  H12 UNK     1      40.145  28.458  13.404  1.00  0.00     0.218 HD
ENDBRANCH   5  29
BRANCH   8  31
ATOM     31  O10 UNK     1      42.921  27.458  11.515  1.00  0.00    -0.357 OA
ATOM     32  H13 UNK     1      42.484  28.193  11.058  1.00  0.00     0.217 HD
ENDBRANCH   8  31
BRANCH  10  33
ATOM     33  C16 UNK     1      42.825  20.932  11.578  1.00  0.00    -0.002 A 
ATOM     34  C17 UNK     1      44.081  20.322  11.632  1.00  0.00     0.014 A 
ATOM     35  C19 UNK     1      44.185  18.931  11.600  1.00  0.00     0.001 A 
ATOM     36  C21 UNK     1      43.036  18.147  11.514  1.00  0.00     0.000 A 
ATOM     37  C20 UNK     1      41.780  18.753  11.460  1.00  0.00     0.001 A 
ATOM     38  C18 UNK     1      41.676  20.143  11.492  1.00  0.00     0.014 A 
ENDBRANCH  10  33
TORSDOF 10
ENDMDL
MODEL 14
REMARK VINA RESULT:      -5.8      3.997      9.861
REMARK  10 active torsions:
REMARK  status: ('A' for Active; 'I' for Inactive)
REMARK    1  A    between atoms: O2_2  and  C4_15 
REMARK    2  A    between atoms: O2_2  and  C7_18 
REMARK    3  A    between atoms: O3_3  and  C1_12 
REMARK    4  A    between atoms: O4_4  and  C2_13 
REMARK    5  A    between atoms: O5_5  and  C3_14 
REMARK    6  A    between atoms: O6_6  and  C6_17 
REMARK    7  A    between atoms: O9_9  and  C9_20 
REMARK    8  A    between atoms: O10_10  and  C12_23 
REMARK    9  A    between atoms: C5_16  and  C6_17 
REMARK   10  A    between atoms: C14_25  and  C16_27 
ROOT
ATOM      1  O8  UNK     1      41.513  23.457  11.794  1.00  0.00    -0.309 OA
ATOM      2  O11 UNK     1      43.443  27.039  12.003  1.00  0.00    -0.287 OA
ATOM      3  C7  UNK     1      38.764  25.507  13.026  1.00  0.00     0.110 A 
ATOM      4  C8  UNK     1      39.500  24.409  12.579  1.00  0.00     0.078 A 
ATOM      5  C9  UNK     1      39.365  26.763  13.120  1.00  0.00     0.134 A 
ATOM      6  C10 UNK     1      40.841  24.571  12.225  1.00  0.00     0.096 A 
ATOM      7  C11 UNK     1      41.439  25.826  12.320  1.00  0.00     0.084 A 
ATOM      8  C12 UNK     1      40.705  26.928  12.767  1.00  0.00     0.118 A 
ATOM      9  C13 UNK     1      42.853  25.968  11.942  1.00  0.00     0.190 A 
ATOM     10  C14 UNK     1      42.844  23.589  11.428  1.00  0.00     0.090 A 
ATOM     11  C15 UNK     1      43.532  24.740  11.480  1.00  0.00     0.094 A 
ENDROOT
BRANCH   3  12
ATOM     12  O2  UNK     1      37.455  25.338  13.369  1.00  0.00    -0.315 OA
BRANCH  12  13
ATOM     13  C4  UNK     1      36.484  25.866  12.464  1.00  0.00     0.299 C 
ATOM     14  O1  UNK     1      35.774  26.933  13.089  1.00  0.00    -0.340 OA
ATOM     15  C5  UNK     1      34.804  27.516  12.225  1.00  0.00     0.253 C 
ATOM     16  C3  UNK     1      33.736  26.501  11.838  1.00  0.00     0.189 C 
ATOM     17  C1  UNK     1      34.371  25.251  11.229  1.00  0.00     0.183 C 
ATOM     18  C2  UNK     1      35.524  24.735  12.090  1.00  0.00     0.205 C 
BRANCH  15  19
ATOM     19  C6  UNK     1      34.223  28.614  13.055  1.00  0.00     0.172 C 
ATOM     20  O7  UNK     1      34.460  28.800  14.239  1.00  0.00    -0.648 OA
BRANCH  19  21
ATOM     21  O6  UNK     1      33.388  29.382  12.314  1.00  0.00    -0.774 OA
ATOM     22  H10 UNK     1      33.864  30.112  11.863  1.00  0.00     0.167 HD
ENDBRANCH  19  21
ENDBRANCH  15  19
BRANCH  16  23
ATOM     23  O5  UNK     1      32.867  27.097  10.876  1.00  0.00    -0.390 OA
ATOM     24  H8  UNK     1      31.977  27.149  11.265  1.00  0.00     0.210 HD
ENDBRANCH  16  23
BRANCH  17  25
ATOM     25  O3  UNK     1      33.362  24.244  11.131  1.00  0.00    -0.390 OA
ATOM     26  H6  UNK     1      32.526  24.685  10.907  1.00  0.00     0.210 HD
ENDBRANCH  17  25
BRANCH  18  27
ATOM     27  O4  UNK     1      36.257  23.749  11.362  1.00  0.00    -0.388 OA
ATOM     28  H7  UNK     1      35.758  23.551  10.552  1.00  0.00     0.210 HD
ENDBRANCH  18  27
ENDBRANCH  12  13
ENDBRANCH   3  12
BRANCH   5  29
ATOM     29  O9  UNK     1      38.638  27.831  13.558  1.00  0.00    -0.356 OA
ATOM     30  H12 UNK     1      38.335  28.336  12.783  1.00  0.00     0.218 HD
ENDBRANCH   5  29
BRANCH   8  31
ATOM     31  O10 UNK     1      41.257  28.169  12.872  1.00  0.00    -0.357 OA
ATOM     32  H13 UNK     1      40.854  28.664  13.601  1.00  0.00     0.217 HD
ENDBRANCH   8  31
BRANCH  10  33
ATOM     33  C16 UNK     1      43.473  22.328  10.984  1.00  0.00    -0.002 A 
ATOM     34  C17 UNK     1      44.778  22.332  10.484  1.00  0.00     0.014 A 
ATOM     35  C19 UNK     1      45.371  21.141  10.066  1.00  0.00     0.001 A 
ATOM     36  C21 UNK     1      44.663  19.942  10.146  1.00  0.00     0.000 A 
ATOM     37  C20 UNK     1      43.360  19.934  10.645  1.00  0.00     0.001 A 
ATOM     38  C18 UNK     1      42.767  21.125  11.063  1.00  0.00     0.014 A 
ENDBRANCH  10  33
TORSDOF 10
ENDMDL
MODEL 15
REMARK VINA RESULT:      -5.8      2.570      4.146
REMARK  10 active torsions:
REMARK  status: ('A' for Active; 'I' for Inactive)
REMARK    1  A    between atoms: O2_2  and  C4_15 
REMARK    2  A    between atoms: O2_2  and  C7_18 
REMARK    3  A    between atoms: O3_3  and  C1_12 
REMARK    4  A    between atoms: O4_4  and  C2_13 
REMARK    5  A    between atoms: O5_5  and  C3_14 
REMARK    6  A    between atoms: O6_6  and  C6_17 
REMARK    7  A    between atoms: O9_9  and  C9_20 
REMARK    8  A    between atoms: O10_10  and  C12_23 
REMARK    9  A    between atoms: C5_16  and  C6_17 
REMARK   10  A    between atoms: C14_25  and  C16_27 
ROOT
ATOM      1  O8  UNK     1      37.692  23.248  11.395  1.00  0.00    -0.309 OA
ATOM      2  O11 UNK     1      36.679  20.036  13.688  1.00  0.00    -0.287 OA
ATOM      3  C7  UNK     1      40.996  21.754  11.763  1.00  0.00     0.110 A 
ATOM      4  C8  UNK     1      39.968  22.619  11.386  1.00  0.00     0.078 A 
ATOM      5  C9  UNK     1      40.716  20.634  12.547  1.00  0.00     0.134 A 
ATOM      6  C10 UNK     1      38.659  22.362  11.796  1.00  0.00     0.096 A 
ATOM      7  C11 UNK     1      38.383  21.243  12.579  1.00  0.00     0.084 A 
ATOM      8  C12 UNK     1      39.409  20.374  12.958  1.00  0.00     0.118 A 
ATOM      9  C13 UNK     1      36.994  20.996  12.998  1.00  0.00     0.190 A 
ATOM     10  C14 UNK     1      36.381  23.013  11.781  1.00  0.00     0.090 A 
ATOM     11  C15 UNK     1      35.990  21.976  12.538  1.00  0.00     0.094 A 
ENDROOT
BRANCH   3  12
ATOM     12  O2  UNK     1      42.272  22.014  11.357  1.00  0.00    -0.315 OA
BRANCH  12  13
ATOM     13  C4  UNK     1      42.802  23.296  11.697  1.00  0.00     0.299 C 
ATOM     14  O1  UNK     1      41.763  24.125  12.212  1.00  0.00    -0.340 OA
ATOM     15  C5  UNK     1      42.236  25.413  12.591  1.00  0.00     0.253 C 
ATOM     16  C3  UNK     1      42.789  26.169  11.388  1.00  0.00     0.189 C 
ATOM     17  C1  UNK     1      43.864  25.346  10.679  1.00  0.00     0.183 C 
ATOM     18  C2  UNK     1      43.396  23.912  10.430  1.00  0.00     0.205 C 
BRANCH  15  19
ATOM     19  C6  UNK     1      41.013  26.084  13.128  1.00  0.00     0.172 C 
ATOM     20  O7  UNK     1      39.868  25.841  12.777  1.00  0.00    -0.648 OA
BRANCH  19  21
ATOM     21  O6  UNK     1      41.346  27.007  14.063  1.00  0.00    -0.774 OA
ATOM     22  H10 UNK     1      40.631  27.666  14.197  1.00  0.00     0.167 HD
ENDBRANCH  19  21
ENDBRANCH  15  19
BRANCH  16  23
ATOM     23  O5  UNK     1      43.363  27.393  11.843  1.00  0.00    -0.390 OA
ATOM     24  H8  UNK     1      42.908  27.654  12.662  1.00  0.00     0.210 HD
ENDBRANCH  16  23
BRANCH  17  25
ATOM     25  O3  UNK     1      44.152  25.977   9.430  1.00  0.00    -0.390 OA
ATOM     26  H6  UNK     1      43.364  26.479   9.164  1.00  0.00     0.210 HD
ENDBRANCH  17  25
BRANCH  18  27
ATOM     27  O4  UNK     1      44.508  23.114  10.023  1.00  0.00    -0.388 OA
ATOM     28  H7  UNK     1      44.169  22.410   9.446  1.00  0.00     0.210 HD
ENDBRANCH  18  27
ENDBRANCH  12  13
ENDBRANCH   3  12
BRANCH   5  29
ATOM     29  O9  UNK     1      41.727  19.792  12.912  1.00  0.00    -0.356 OA
ATOM     30  H12 UNK     1      42.537  20.064  12.445  1.00  0.00     0.218 HD
ENDBRANCH   5  29
BRANCH   8  31
ATOM     31  O10 UNK     1      39.175  19.270  13.723  1.00  0.00    -0.357 OA
ATOM     32  H13 UNK     1      38.356  18.829  13.450  1.00  0.00     0.217 HD
ENDBRANCH   8  31
BRANCH  10  33
ATOM     33  C16 UNK     1      35.423  24.030  11.300  1.00  0.00    -0.002 A 
ATOM     34  C17 UNK     1      34.145  24.109  11.859  1.00  0.00     0.014 A 
ATOM     35  C19 UNK     1      33.241  25.070  11.405  1.00  0.00     0.001 A 
ATOM     36  C21 UNK     1      33.611  25.954  10.392  1.00  0.00     0.000 A 
ATOM     37  C20 UNK     1      34.886  25.877   9.831  1.00  0.00     0.001 A 
ATOM     38  C18 UNK     1      35.791  24.916  10.285  1.00  0.00     0.014 A 
ENDBRANCH  10  33
TORSDOF 10
ENDMDL
MODEL 16
REMARK VINA RESULT:      -5.8      1.491      3.079
REMARK  10 active torsions:
REMARK  status: ('A' for Active; 'I' for Inactive)
REMARK    1  A    between atoms: O2_2  and  C4_15 
REMARK    2  A    between atoms: O2_2  and  C7_18 
REMARK    3  A    between atoms: O3_3  and  C1_12 
REMARK    4  A    between atoms: O4_4  and  C2_13 
REMARK    5  A    between atoms: O5_5  and  C3_14 
REMARK    6  A    between atoms: O6_6  and  C6_17 
REMARK    7  A    between atoms: O9_9  and  C9_20 
REMARK    8  A    between atoms: O10_10  and  C12_23 
REMARK    9  A    between atoms: C5_16  and  C6_17 
REMARK   10  A    between atoms: C14_25  and  C16_27 
ROOT
ATOM      1  O8  UNK     1      39.155  23.298  11.782  1.00  0.00    -0.309 OA
ATOM      2  O11 UNK     1      37.606  19.925  13.463  1.00  0.00    -0.287 OA
ATOM      3  C7  UNK     1      42.271  21.604  12.621  1.00  0.00     0.110 A 
ATOM      4  C8  UNK     1      41.367  22.556  12.149  1.00  0.00     0.078 A 
ATOM      5  C9  UNK     1      41.806  20.426  13.207  1.00  0.00     0.134 A 
ATOM      6  C10 UNK     1      39.995  22.326  12.263  1.00  0.00     0.096 A 
ATOM      7  C11 UNK     1      39.533  21.149  12.849  1.00  0.00     0.084 A 
ATOM      8  C12 UNK     1      40.435  20.194  13.323  1.00  0.00     0.118 A 
ATOM      9  C13 UNK     1      38.082  20.933  12.958  1.00  0.00     0.190 A 
ATOM     10  C14 UNK     1      37.787  23.093  11.875  1.00  0.00     0.090 A 
ATOM     11  C15 UNK     1      37.221  22.006  12.422  1.00  0.00     0.094 A 
ENDROOT
BRANCH   3  12
ATOM     12  O2  UNK     1      43.610  21.838  12.504  1.00  0.00    -0.315 OA
BRANCH  12  13
ATOM     13  C4  UNK     1      44.283  21.177  11.432  1.00  0.00     0.299 C 
ATOM     14  O1  UNK     1      44.824  19.942  11.892  1.00  0.00    -0.340 OA
ATOM     15  C5  UNK     1      45.490  19.224  10.859  1.00  0.00     0.253 C 
ATOM     16  C3  UNK     1      46.684  20.009  10.330  1.00  0.00     0.189 C 
ATOM     17  C1  UNK     1      46.257  21.405   9.877  1.00  0.00     0.183 C 
ATOM     18  C2  UNK     1      45.400  22.097  10.937  1.00  0.00     0.205 C 
BRANCH  15  19
ATOM     19  C6  UNK     1      45.934  17.972  11.543  1.00  0.00     0.172 C 
ATOM     20  O7  UNK     1      46.796  17.212  11.125  1.00  0.00    -0.648 OA
BRANCH  19  21
ATOM     21  O6  UNK     1      45.247  17.786  12.696  1.00  0.00    -0.774 OA
ATOM     22  H10 UNK     1      45.007  16.845  12.833  1.00  0.00     0.167 HD
ENDBRANCH  19  21
ENDBRANCH  15  19
BRANCH  16  23
ATOM     23  O5  UNK     1      47.236  19.307   9.216  1.00  0.00    -0.390 OA
ATOM     24  H8  UNK     1      48.046  18.858   9.514  1.00  0.00     0.210 HD
ENDBRANCH  16  23
BRANCH  17  25
ATOM     25  O3  UNK     1      47.438  22.175   9.643  1.00  0.00    -0.390 OA
ATOM     26  H6  UNK     1      48.031  21.644   9.086  1.00  0.00     0.210 HD
ENDBRANCH  17  25
BRANCH  18  27
ATOM     27  O4  UNK     1      44.802  23.265  10.375  1.00  0.00    -0.388 OA
ATOM     28  H7  UNK     1      44.625  23.885  11.102  1.00  0.00     0.210 HD
ENDBRANCH  18  27
ENDBRANCH  12  13
ENDBRANCH   3  12
BRANCH   5  29
ATOM     29  O9  UNK     1      42.697  19.500  13.666  1.00  0.00    -0.356 OA
ATOM     30  H12 UNK     1      43.303  19.939  14.289  1.00  0.00     0.218 HD
ENDBRANCH   5  29
BRANCH   8  31
ATOM     31  O10 UNK     1      40.020  19.031  13.901  1.00  0.00    -0.357 OA
ATOM     32  H13 UNK     1      40.158  18.281  13.302  1.00  0.00     0.217 HD
ENDBRANCH   8  31
BRANCH  10  33
ATOM     33  C16 UNK     1      36.976  24.202  11.332  1.00  0.00    -0.002 A 
ATOM     34  C17 UNK     1      37.308  25.526  11.631  1.00  0.00     0.014 A 
ATOM     35  C19 UNK     1      36.542  26.573  11.117  1.00  0.00     0.001 A 
ATOM     36  C21 UNK     1      35.445  26.300  10.301  1.00  0.00     0.000 A 
ATOM     37  C20 UNK     1      35.111  24.979  10.000  1.00  0.00     0.001 A 
ATOM     38  C18 UNK     1      35.876  23.932  10.515  1.00  0.00     0.014 A 
ENDBRANCH  10  33
TORSDOF 10
ENDMDL
MODEL 17
REMARK VINA RESULT:      -5.8      2.747      4.012
REMARK  10 active torsions:
REMARK  status: ('A' for Active; 'I' for Inactive)
REMARK    1  A    between atoms: O2_2  and  C4_15 
REMARK    2  A    between atoms: O2_2  and  C7_18 
REMARK    3  A    between atoms: O3_3  and  C1_12 
REMARK    4  A    between atoms: O4_4  and  C2_13 
REMARK    5  A    between atoms: O5_5  and  C3_14 
REMARK    6  A    between atoms: O6_6  and  C6_17 
REMARK    7  A    between atoms: O9_9  and  C9_20 
REMARK    8  A    between atoms: O10_10  and  C12_23 
REMARK    9  A    between atoms: C5_16  and  C6_17 
REMARK   10  A    between atoms: C14_25  and  C16_27 
ROOT
ATOM      1  O8  UNK     1      42.306  22.568  11.965  1.00  0.00    -0.309 OA
ATOM      2  O11 UNK     1      39.013  20.319  12.802  1.00  0.00    -0.287 OA
ATOM      3  C7  UNK     1      43.753  19.256  11.500  1.00  0.00     0.110 A 
ATOM      4  C8  UNK     1      43.614  20.642  11.569  1.00  0.00     0.078 A 
ATOM      5  C9  UNK     1      42.663  18.428  11.773  1.00  0.00     0.134 A 
ATOM      6  C10 UNK     1      42.381  21.200  11.912  1.00  0.00     0.096 A 
ATOM      7  C11 UNK     1      41.295  20.371  12.186  1.00  0.00     0.084 A 
ATOM      8  C12 UNK     1      41.430  18.982  12.117  1.00  0.00     0.118 A 
ATOM      9  C13 UNK     1      40.008  20.985  12.547  1.00  0.00     0.190 A 
ATOM     10  C14 UNK     1      41.092  23.150  12.297  1.00  0.00     0.090 A 
ATOM     11  C15 UNK     1      39.977  22.461  12.586  1.00  0.00     0.094 A 
ENDROOT
BRANCH   3  12
ATOM     12  O2  UNK     1      44.962  18.721  11.162  1.00  0.00    -0.315 OA
BRANCH  12  13
ATOM     13  C4  UNK     1      46.093  19.588  11.257  1.00  0.00     0.299 C 
ATOM     14  O1  UNK     1      46.510  19.979   9.951  1.00  0.00    -0.340 OA
ATOM     15  C5  UNK     1      47.624  20.864   9.982  1.00  0.00     0.253 C 
ATOM     16  C3  UNK     1      48.842  20.190  10.603  1.00  0.00     0.189 C 
ATOM     17  C1  UNK     1      48.507  19.638  11.989  1.00  0.00     0.183 C 
ATOM     18  C2  UNK     1      47.212  18.826  11.968  1.00  0.00     0.205 C 
BRANCH  15  19
ATOM     19  C6  UNK     1      47.860  21.169   8.538  1.00  0.00     0.172 C 
ATOM     20  O7  UNK     1      48.943  21.108   7.976  1.00  0.00    -0.648 OA
BRANCH  19  21
ATOM     21  O6  UNK     1      46.704  21.528   7.930  1.00  0.00    -0.774 OA
ATOM     22  H10 UNK     1      46.438  22.444   8.159  1.00  0.00     0.167 HD
ENDBRANCH  19  21
ENDBRANCH  15  19
BRANCH  16  23
ATOM     23  O5  UNK     1      49.885  21.156  10.726  1.00  0.00    -0.390 OA
ATOM     24  H8  UNK     1      50.360  21.196   9.878  1.00  0.00     0.210 HD
ENDBRANCH  16  23
BRANCH  17  25
ATOM     25  O3  UNK     1      49.588  18.801  12.404  1.00  0.00    -0.390 OA
ATOM     26  H6  UNK     1      49.434  18.559  13.332  1.00  0.00     0.210 HD
ENDBRANCH  17  25
BRANCH  18  27
ATOM     27  O4  UNK     1      46.795  18.564  13.308  1.00  0.00    -0.388 OA
ATOM     28  H7  UNK     1      46.138  19.238  13.548  1.00  0.00     0.210 HD
ENDBRANCH  18  27
ENDBRANCH  12  13
ENDBRANCH   3  12
BRANCH   5  29
ATOM     29  O9  UNK     1      42.808  17.073  11.703  1.00  0.00    -0.356 OA
ATOM     30  H12 UNK     1      43.635  16.828  12.153  1.00  0.00     0.218 HD
ENDBRANCH   5  29
BRANCH   8  31
ATOM     31  O10 UNK     1      40.389  18.141  12.377  1.00  0.00    -0.357 OA
ATOM     32  H13 UNK     1      40.541  17.651  13.200  1.00  0.00     0.217 HD
ENDBRANCH   8  31
BRANCH  10  33
ATOM     33  C16 UNK     1      41.124  24.627  12.329  1.00  0.00    -0.002 A 
ATOM     34  C17 UNK     1      39.975  25.346  12.671  1.00  0.00     0.014 A 
ATOM     35  C19 UNK     1      40.005  26.740  12.702  1.00  0.00     0.001 A 
ATOM     36  C21 UNK     1      41.183  27.420  12.392  1.00  0.00     0.000 A 
ATOM     37  C20 UNK     1      42.331  26.705  12.050  1.00  0.00     0.001 A 
ATOM     38  C18 UNK     1      42.301  25.311  12.019  1.00  0.00     0.014 A 
ENDBRANCH  10  33
TORSDOF 10
ENDMDL
MODEL 18
REMARK VINA RESULT:      -5.7      3.180      6.524
REMARK  10 active torsions:
REMARK  status: ('A' for Active; 'I' for Inactive)
REMARK    1  A    between atoms: O2_2  and  C4_15 
REMARK    2  A    between atoms: O2_2  and  C7_18 
REMARK    3  A    between atoms: O3_3  and  C1_12 
REMARK    4  A    between atoms: O4_4  and  C2_13 
REMARK    5  A    between atoms: O5_5  and  C3_14 
REMARK    6  A    between atoms: O6_6  and  C6_17 
REMARK    7  A    between atoms: O9_9  and  C9_20 
REMARK    8  A    between atoms: O10_10  and  C12_23 
REMARK    9  A    between atoms: C5_16  and  C6_17 
REMARK   10  A    between atoms: C14_25  and  C16_27 
ROOT
ATOM      1  O8  UNK     1      40.646  21.382  12.149  1.00  0.00    -0.309 OA
ATOM      2  O11 UNK     1      42.969  18.111  11.436  1.00  0.00    -0.287 OA
ATOM      3  C7  UNK     1      43.546  23.053  10.708  1.00  0.00     0.110 A 
ATOM      4  C8  UNK     1      42.294  22.834  11.282  1.00  0.00     0.078 A 
ATOM      5  C9  UNK     1      44.390  21.975  10.436  1.00  0.00     0.134 A 
ATOM      6  C10 UNK     1      41.887  21.534  11.585  1.00  0.00     0.096 A 
ATOM      7  C11 UNK     1      42.732  20.460  11.313  1.00  0.00     0.084 A 
ATOM      8  C12 UNK     1      43.986  20.674  10.738  1.00  0.00     0.118 A 
ATOM      9  C13 UNK     1      42.278  19.100  11.645  1.00  0.00     0.190 A 
ATOM     10  C14 UNK     1      40.212  20.101  12.454  1.00  0.00     0.090 A 
ATOM     11  C15 UNK     1      40.934  18.989  12.246  1.00  0.00     0.094 A 
ENDROOT
BRANCH   3  12
ATOM     12  O2  UNK     1      43.934  24.327  10.415  1.00  0.00    -0.315 OA
BRANCH  12  13
ATOM     13  C4  UNK     1      44.223  25.179  11.525  1.00  0.00     0.299 C 
ATOM     14  O1  UNK     1      44.137  24.434  12.737  1.00  0.00    -0.340 OA
ATOM     15  C5  UNK     1      44.437  25.226  13.881  1.00  0.00     0.253 C 
ATOM     16  C3  UNK     1      43.434  26.362  14.039  1.00  0.00     0.189 C 
ATOM     17  C1  UNK     1      43.358  27.200  12.763  1.00  0.00     0.183 C 
ATOM     18  C2  UNK     1      43.202  26.317  11.525  1.00  0.00     0.205 C 
BRANCH  15  19
ATOM     19  C6  UNK     1      44.327  24.254  15.010  1.00  0.00     0.172 C 
ATOM     20  O7  UNK     1      44.631  24.488  16.171  1.00  0.00    -0.648 OA
BRANCH  19  21
ATOM     21  O6  UNK     1      43.844  23.065  14.573  1.00  0.00    -0.774 OA
ATOM     22  H10 UNK     1      44.533  22.368  14.571  1.00  0.00     0.167 HD
ENDBRANCH  19  21
ENDBRANCH  15  19
BRANCH  16  23
ATOM     23  O5  UNK     1      43.853  27.195  15.119  1.00  0.00    -0.390 OA
ATOM     24  H8  UNK     1      43.398  28.051  15.034  1.00  0.00     0.210 HD
ENDBRANCH  16  23
BRANCH  17  25
ATOM     25  O3  UNK     1      42.231  28.071  12.872  1.00  0.00    -0.390 OA
ATOM     26  H6  UNK     1      42.484  28.930  12.496  1.00  0.00     0.210 HD
ENDBRANCH  17  25
BRANCH  18  27
ATOM     27  O4  UNK     1      43.409  27.104  10.352  1.00  0.00    -0.388 OA
ATOM     28  H7  UNK     1      43.227  26.539   9.582  1.00  0.00     0.210 HD
ENDBRANCH  18  27
ENDBRANCH  12  13
ENDBRANCH   3  12
BRANCH   5  29
ATOM     29  O9  UNK     1      45.614  22.198   9.874  1.00  0.00    -0.356 OA
ATOM     30  H12 UNK     1      46.060  22.901  10.377  1.00  0.00     0.218 HD
ENDBRANCH   5  29
BRANCH   8  31
ATOM     31  O10 UNK     1      44.838  19.648  10.458  1.00  0.00    -0.357 OA
ATOM     32  H13 UNK     1      44.710  18.915  11.080  1.00  0.00     0.217 HD
ENDBRANCH   8  31
BRANCH  10  33
ATOM     33  C16 UNK     1      38.866  20.051  13.061  1.00  0.00    -0.002 A 
ATOM     34  C17 UNK     1      38.658  19.345  14.249  1.00  0.00     0.014 A 
ATOM     35  C19 UNK     1      37.387  19.300  14.822  1.00  0.00     0.001 A 
ATOM     36  C21 UNK     1      36.321  19.960  14.211  1.00  0.00     0.000 A 
ATOM     37  C20 UNK     1      36.526  20.666  13.025  1.00  0.00     0.001 A 
ATOM     38  C18 UNK     1      37.797  20.711  12.452  1.00  0.00     0.014 A 
ENDBRANCH  10  33
TORSDOF 10
ENDMDL
