MODEL 1
REMARK VINA RESULT:      -7.2      0.000      0.000
REMARK  10 active torsions:
REMARK  status: ('A' for Active; 'I' for Inactive)
REMARK    1  A    between atoms: O2_2  and  C4_15 
REMARK    2  A    between atoms: O2_2  and  C7_18 
REMARK    3  A    between atoms: O3_3  and  C1_12 
REMARK    4  A    between atoms: O4_4  and  C2_13 
REMARK    5  A    between atoms: O5_5  and  C3_14 
REMARK    6  A    between atoms: O6_6  and  C6_17 
REMARK    7  A    between atoms: O9_9  and  C9_20 
REMARK    8  A    between atoms: O10_10  and  C12_23 
REMARK    9  A    between atoms: C5_16  and  C6_17 
REMARK   10  A    between atoms: C14_25  and  C16_27 
ROOT
ATOM      1  O8  UNK     1      38.099  -6.479  -7.375  1.00  0.00    -0.309 OA
ATOM      2  O11 UNK     1      36.105  -7.469  -3.962  1.00  0.00    -0.287 OA
ATOM      3  C7  UNK     1      34.693  -5.865  -8.514  1.00  0.00     0.110 A 
ATOM      4  C8  UNK     1      36.083  -5.969  -8.494  1.00  0.00     0.078 A 
ATOM      5  C9  UNK     1      33.950  -6.187  -7.378  1.00  0.00     0.134 A 
ATOM      6  C10 UNK     1      36.731  -6.396  -7.334  1.00  0.00     0.096 A 
ATOM      7  C11 UNK     1      35.986  -6.718  -6.201  1.00  0.00     0.084 A 
ATOM      8  C12 UNK     1      34.593  -6.615  -6.217  1.00  0.00     0.118 A 
ATOM      9  C13 UNK     1      36.694  -7.168  -4.992  1.00  0.00     0.190 A 
ATOM     10  C14 UNK     1      38.769  -6.895  -6.234  1.00  0.00     0.090 A 
ATOM     11  C15 UNK     1      38.166  -7.237  -5.085  1.00  0.00     0.094 A 
ENDROOT
BRANCH   3  12
ATOM     12  O2  UNK     1      34.070  -5.445  -9.653  1.00  0.00    -0.315 OA
BRANCH  12  13
ATOM     13  C4  UNK     1      33.848  -4.040  -9.780  1.00  0.00     0.299 C 
ATOM     14  O1  UNK     1      32.504  -3.731  -9.418  1.00  0.00    -0.340 OA
ATOM     15  C5  UNK     1      32.228  -2.337  -9.503  1.00  0.00     0.253 C 
ATOM     16  C3  UNK     1      32.381  -1.835 -10.935  1.00  0.00     0.189 C 
ATOM     17  C1  UNK     1      33.763  -2.183 -11.487  1.00  0.00     0.183 C 
ATOM     18  C2  UNK     1      34.111  -3.651 -11.235  1.00  0.00     0.205 C 
BRANCH  15  19
ATOM     19  C6  UNK     1      30.808  -2.240  -9.051  1.00  0.00     0.172 C 
ATOM     20  O7  UNK     1      30.425  -2.398  -7.901  1.00  0.00    -0.648 OA
BRANCH  19  21
ATOM     21  O6  UNK     1      29.992  -1.954 -10.095  1.00  0.00    -0.774 OA
ATOM     22  H10 UNK     1      30.430  -1.377 -10.756  1.00  0.00     0.167 HD
ENDBRANCH  19  21
ENDBRANCH  15  19
BRANCH  16  23
ATOM     23  O5  UNK     1      32.220  -0.418 -10.942  1.00  0.00    -0.390 OA
ATOM     24  H8  UNK     1      32.268  -0.104 -10.022  1.00  0.00     0.210 HD
ENDBRANCH  16  23
BRANCH  17  25
ATOM     25  O3  UNK     1      33.755  -1.930 -12.892  1.00  0.00    -0.390 OA
ATOM     26  H6  UNK     1      34.546  -1.407 -13.103  1.00  0.00     0.210 HD
ENDBRANCH  17  25
BRANCH  18  27
ATOM     27  O4  UNK     1      35.495  -3.864 -11.513  1.00  0.00    -0.388 OA
ATOM     28  H7  UNK     1      35.596  -4.781 -11.818  1.00  0.00     0.210 HD
ENDBRANCH  18  27
ENDBRANCH  12  13
ENDBRANCH   3  12
BRANCH   5  29
ATOM     29  O9  UNK     1      32.589  -6.083  -7.406  1.00  0.00    -0.356 OA
ATOM     30  H12 UNK     1      32.210  -6.889  -7.014  1.00  0.00     0.218 HD
ENDBRANCH   5  29
BRANCH   8  31
ATOM     31  O10 UNK     1      33.834  -6.921  -5.127  1.00  0.00    -0.357 OA
ATOM     32  H13 UNK     1      33.066  -6.332  -5.066  1.00  0.00     0.217 HD
ENDBRANCH   8  31
BRANCH  10  33
ATOM     33  C16 UNK     1      40.237  -6.953  -6.389  1.00  0.00    -0.002 A 
ATOM     34  C17 UNK     1      40.800  -7.515  -7.538  1.00  0.00     0.014 A 
ATOM     35  C19 UNK     1      42.186  -7.569  -7.684  1.00  0.00     0.001 A 
ATOM     36  C21 UNK     1      43.014  -7.060  -6.683  1.00  0.00     0.000 A 
ATOM     37  C20 UNK     1      42.456  -6.498  -5.535  1.00  0.00     0.001 A 
ATOM     38  C18 UNK     1      41.069  -6.444  -5.389  1.00  0.00     0.014 A 
ENDBRANCH  10  33
TORSDOF 10
ENDMDL
MODEL 2
REMARK VINA RESULT:      -7.1     18.295     20.583
REMARK  10 active torsions:
REMARK  status: ('A' for Active; 'I' for Inactive)
REMARK    1  A    between atoms: O2_2  and  C4_15 
REMARK    2  A    between atoms: O2_2  and  C7_18 
REMARK    3  A    between atoms: O3_3  and  C1_12 
REMARK    4  A    between atoms: O4_4  and  C2_13 
REMARK    5  A    between atoms: O5_5  and  C3_14 
REMARK    6  A    between atoms: O6_6  and  C6_17 
REMARK    7  A    between atoms: O9_9  and  C9_20 
REMARK    8  A    between atoms: O10_10  and  C12_23 
REMARK    9  A    between atoms: C5_16  and  C6_17 
REMARK   10  A    between atoms: C14_25  and  C16_27 
ROOT
ATOM      1  O8  UNK     1      44.188   2.270   8.120  1.00  0.00    -0.309 OA
ATOM      2  O11 UNK     1      42.612   5.517  10.011  1.00  0.00    -0.287 OA
ATOM      3  C7  UNK     1      40.732   1.145   8.385  1.00  0.00     0.110 A 
ATOM      4  C8  UNK     1      42.094   1.178   8.087  1.00  0.00     0.078 A 
ATOM      5  C9  UNK     1      40.130   2.226   9.031  1.00  0.00     0.134 A 
ATOM      6  C10 UNK     1      42.854   2.296   8.437  1.00  0.00     0.096 A 
ATOM      7  C11 UNK     1      42.250   3.373   9.083  1.00  0.00     0.084 A 
ATOM      8  C12 UNK     1      40.886   3.344   9.382  1.00  0.00     0.118 A 
ATOM      9  C13 UNK     1      43.075   4.537   9.442  1.00  0.00     0.190 A 
ATOM     10  C14 UNK     1      44.966   3.370   8.449  1.00  0.00     0.090 A 
ATOM     11  C15 UNK     1      44.503   4.463   9.075  1.00  0.00     0.094 A 
ENDROOT
BRANCH   3  12
ATOM     12  O2  UNK     1      39.999   0.048   8.038  1.00  0.00    -0.315 OA
BRANCH  12  13
ATOM     13  C4  UNK     1      39.745  -0.904   9.072  1.00  0.00     0.299 C 
ATOM     14  O1  UNK     1      39.611  -0.233  10.322  1.00  0.00    -0.340 OA
ATOM     15  C5  UNK     1      39.334  -1.131  11.391  1.00  0.00     0.253 C 
ATOM     16  C3  UNK     1      40.479  -2.117  11.589  1.00  0.00     0.189 C 
ATOM     17  C1  UNK     1      40.792  -2.852  10.286  1.00  0.00     0.183 C 
ATOM     18  C2  UNK     1      40.922  -1.879   9.114  1.00  0.00     0.205 C 
BRANCH  15  19
ATOM     19  C6  UNK     1      39.196  -0.226  12.572  1.00  0.00     0.172 C 
ATOM     20  O7  UNK     1      39.138  -0.595  13.736  1.00  0.00    -0.648 OA
BRANCH  19  21
ATOM     21  O6  UNK     1      39.142   1.070  12.179  1.00  0.00    -0.774 OA
ATOM     22  H10 UNK     1      38.347   1.255  11.635  1.00  0.00     0.167 HD
ENDBRANCH  19  21
ENDBRANCH  15  19
BRANCH  16  23
ATOM     23  O5  UNK     1      40.097  -3.068  12.581  1.00  0.00    -0.390 OA
ATOM     24  H8  UNK     1      40.105  -3.950  12.172  1.00  0.00     0.210 HD
ENDBRANCH  16  23
BRANCH  17  25
ATOM     25  O3  UNK     1      42.024  -3.555  10.460  1.00  0.00    -0.390 OA
ATOM     26  H6  UNK     1      42.677  -2.925  10.805  1.00  0.00     0.210 HD
ENDBRANCH  17  25
BRANCH  18  27
ATOM     27  O4  UNK     1      40.939  -2.613   7.889  1.00  0.00    -0.388 OA
ATOM     28  H7  UNK     1      41.856  -2.628   7.568  1.00  0.00     0.210 HD
ENDBRANCH  18  27
ENDBRANCH  12  13
ENDBRANCH   3  12
BRANCH   5  29
ATOM     29  O9  UNK     1      38.796   2.185   9.318  1.00  0.00    -0.356 OA
ATOM     30  H12 UNK     1      38.672   1.667  10.133  1.00  0.00     0.218 HD
ENDBRANCH   5  29
BRANCH   8  31
ATOM     31  O10 UNK     1      40.262   4.379  10.012  1.00  0.00    -0.357 OA
ATOM     32  H13 UNK     1      40.683   4.567  10.865  1.00  0.00     0.217 HD
ENDBRANCH   8  31
BRANCH  10  33
ATOM     33  C16 UNK     1      46.387   3.236   8.066  1.00  0.00    -0.002 A 
ATOM     34  C17 UNK     1      46.741   2.504   6.930  1.00  0.00     0.014 A 
ATOM     35  C19 UNK     1      48.083   2.379   6.568  1.00  0.00     0.001 A 
ATOM     36  C21 UNK     1      49.073   2.984   7.340  1.00  0.00     0.000 A 
ATOM     37  C20 UNK     1      48.723   3.715   8.476  1.00  0.00     0.001 A 
ATOM     38  C18 UNK     1      47.382   3.840   8.838  1.00  0.00     0.014 A 
ENDBRANCH  10  33
TORSDOF 10
ENDMDL
MODEL 3
REMARK VINA RESULT:      -7.1     13.327     16.874
REMARK  10 active torsions:
REMARK  status: ('A' for Active; 'I' for Inactive)
REMARK    1  A    between atoms: O2_2  and  C4_15 
REMARK    2  A    between atoms: O2_2  and  C7_18 
REMARK    3  A    between atoms: O3_3  and  C1_12 
REMARK    4  A    between atoms: O4_4  and  C2_13 
REMARK    5  A    between atoms: O5_5  and  C3_14 
REMARK    6  A    between atoms: O6_6  and  C6_17 
REMARK    7  A    between atoms: O9_9  and  C9_20 
REMARK    8  A    between atoms: O10_10  and  C12_23 
REMARK    9  A    between atoms: C5_16  and  C6_17 
REMARK   10  A    between atoms: C14_25  and  C16_27 
ROOT
ATOM      1  O8  UNK     1      37.727  -5.596   5.688  1.00  0.00    -0.309 OA
ATOM      2  O11 UNK     1      37.051  -7.106   9.412  1.00  0.00    -0.287 OA
ATOM      3  C7  UNK     1      37.591  -2.466   7.550  1.00  0.00     0.110 A 
ATOM      4  C8  UNK     1      37.711  -3.379   6.502  1.00  0.00     0.078 A 
ATOM      5  C9  UNK     1      37.360  -2.918   8.850  1.00  0.00     0.134 A 
ATOM      6  C10 UNK     1      37.601  -4.747   6.758  1.00  0.00     0.096 A 
ATOM      7  C11 UNK     1      37.370  -5.195   8.057  1.00  0.00     0.084 A 
ATOM      8  C12 UNK     1      37.249  -4.284   9.109  1.00  0.00     0.118 A 
ATOM      9  C13 UNK     1      37.255  -6.642   8.298  1.00  0.00     0.190 A 
ATOM     10  C14 UNK     1      37.629  -6.961   5.913  1.00  0.00     0.090 A 
ATOM     11  C15 UNK     1      37.403  -7.514   7.115  1.00  0.00     0.094 A 
ENDROOT
BRANCH   3  12
ATOM     12  O2  UNK     1      37.701  -1.132   7.290  1.00  0.00    -0.315 OA
BRANCH  12  13
ATOM     13  C4  UNK     1      39.023  -0.590   7.279  1.00  0.00     0.299 C 
ATOM     14  O1  UNK     1      39.790  -1.172   8.329  1.00  0.00    -0.340 OA
ATOM     15  C5  UNK     1      41.128  -0.686   8.355  1.00  0.00     0.253 C 
ATOM     16  C3  UNK     1      41.160   0.814   8.622  1.00  0.00     0.189 C 
ATOM     17  C1  UNK     1      40.295   1.564   7.610  1.00  0.00     0.183 C 
ATOM     18  C2  UNK     1      38.913   0.923   7.474  1.00  0.00     0.205 C 
BRANCH  15  19
ATOM     19  C6  UNK     1      41.747  -1.444   9.484  1.00  0.00     0.172 C 
ATOM     20  O7  UNK     1      42.024  -0.973  10.577  1.00  0.00    -0.648 OA
BRANCH  19  21
ATOM     21  O6  UNK     1      41.965  -2.734   9.131  1.00  0.00    -0.774 OA
ATOM     22  H10 UNK     1      42.170  -2.824   8.176  1.00  0.00     0.167 HD
ENDBRANCH  19  21
ENDBRANCH  15  19
BRANCH  16  23
ATOM     23  O5  UNK     1      42.508   1.269   8.511  1.00  0.00    -0.390 OA
ATOM     24  H8  UNK     1      42.676   1.893   9.238  1.00  0.00     0.210 HD
ENDBRANCH  16  23
BRANCH  17  25
ATOM     25  O3  UNK     1      40.152   2.912   8.062  1.00  0.00    -0.390 OA
ATOM     26  H6  UNK     1      40.655   3.001   8.888  1.00  0.00     0.210 HD
ENDBRANCH  17  25
BRANCH  18  27
ATOM     27  O4  UNK     1      38.245   1.474   6.339  1.00  0.00    -0.388 OA
ATOM     28  H7  UNK     1      37.619   0.806   6.013  1.00  0.00     0.210 HD
ENDBRANCH  18  27
ENDBRANCH  12  13
ENDBRANCH   3  12
BRANCH   5  29
ATOM     29  O9  UNK     1      37.244  -2.018   9.870  1.00  0.00    -0.356 OA
ATOM     30  H12 UNK     1      37.822  -1.259   9.677  1.00  0.00     0.218 HD
ENDBRANCH   5  29
BRANCH   8  31
ATOM     31  O10 UNK     1      37.024  -4.687  10.391  1.00  0.00    -0.357 OA
ATOM     32  H13 UNK     1      36.109  -4.987  10.502  1.00  0.00     0.217 HD
ENDBRANCH   8  31
BRANCH  10  33
ATOM     33  C16 UNK     1      37.775  -7.782   4.694  1.00  0.00    -0.002 A 
ATOM     34  C17 UNK     1      38.956  -8.493   4.465  1.00  0.00     0.014 A 
ATOM     35  C19 UNK     1      39.093  -9.269   3.314  1.00  0.00     0.001 A 
ATOM     36  C21 UNK     1      38.051  -9.338   2.390  1.00  0.00     0.000 A 
ATOM     37  C20 UNK     1      36.871  -8.630   2.616  1.00  0.00     0.001 A 
ATOM     38  C18 UNK     1      36.733  -7.853   3.767  1.00  0.00     0.014 A 
ENDBRANCH  10  33
TORSDOF 10
ENDMDL
MODEL 4
REMARK VINA RESULT:      -7.0     19.169     21.865
REMARK  10 active torsions:
REMARK  status: ('A' for Active; 'I' for Inactive)
REMARK    1  A    between atoms: O2_2  and  C4_15 
REMARK    2  A    between atoms: O2_2  and  C7_18 
REMARK    3  A    between atoms: O3_3  and  C1_12 
REMARK    4  A    between atoms: O4_4  and  C2_13 
REMARK    5  A    between atoms: O5_5  and  C3_14 
REMARK    6  A    between atoms: O6_6  and  C6_17 
REMARK    7  A    between atoms: O9_9  and  C9_20 
REMARK    8  A    between atoms: O10_10  and  C12_23 
REMARK    9  A    between atoms: C5_16  and  C6_17 
REMARK   10  A    between atoms: C14_25  and  C16_27 
ROOT
ATOM      1  O8  UNK     1      45.124  12.838 -10.709  1.00  0.00    -0.309 OA
ATOM      2  O11 UNK     1      42.741   9.539 -10.906  1.00  0.00    -0.287 OA
ATOM      3  C7  UNK     1      47.079  10.605  -8.595  1.00  0.00     0.110 A 
ATOM      4  C8  UNK     1      46.665  11.734  -9.302  1.00  0.00     0.078 A 
ATOM      5  C9  UNK     1      46.309   9.441  -8.622  1.00  0.00     0.134 A 
ATOM      6  C10 UNK     1      45.479  11.697 -10.036  1.00  0.00     0.096 A 
ATOM      7  C11 UNK     1      44.712  10.534 -10.061  1.00  0.00     0.084 A 
ATOM      8  C12 UNK     1      45.122   9.401  -9.355  1.00  0.00     0.118 A 
ATOM      9  C13 UNK     1      43.465  10.523 -10.841  1.00  0.00     0.190 A 
ATOM     10  C14 UNK     1      43.953  12.828 -11.453  1.00  0.00     0.090 A 
ATOM     11  C15 UNK     1      43.129  11.774 -11.551  1.00  0.00     0.094 A 
ENDROOT
BRANCH   3  12
ATOM     12  O2  UNK     1      48.240  10.651  -7.881  1.00  0.00    -0.315 OA
BRANCH  12  13
ATOM     13  C4  UNK     1      48.147  11.133  -6.540  1.00  0.00     0.299 C 
ATOM     14  O1  UNK     1      48.609  12.480  -6.479  1.00  0.00    -0.340 OA
ATOM     15  C5  UNK     1      48.520  13.024  -5.167  1.00  0.00     0.253 C 
ATOM     16  C3  UNK     1      49.405  12.255  -4.194  1.00  0.00     0.189 C 
ATOM     17  C1  UNK     1      49.073  10.763  -4.222  1.00  0.00     0.183 C 
ATOM     18  C2  UNK     1      49.009  10.233  -5.654  1.00  0.00     0.205 C 
BRANCH  15  19
ATOM     19  C6  UNK     1      49.009  14.425  -5.343  1.00  0.00     0.172 C 
ATOM     20  O7  UNK     1      48.685  15.374  -4.644  1.00  0.00    -0.648 OA
BRANCH  19  21
ATOM     21  O6  UNK     1      49.864  14.505  -6.391  1.00  0.00    -0.774 OA
ATOM     22  H10 UNK     1      50.461  13.728  -6.438  1.00  0.00     0.167 HD
ENDBRANCH  19  21
ENDBRANCH  15  19
BRANCH  16  23
ATOM     23  O5  UNK     1      49.181  12.757  -2.877  1.00  0.00    -0.390 OA
ATOM     24  H8  UNK     1      50.046  12.893  -2.455  1.00  0.00     0.210 HD
ENDBRANCH  16  23
BRANCH  17  25
ATOM     25  O3  UNK     1      50.093  10.069  -3.502  1.00  0.00    -0.390 OA
ATOM     26  H6  UNK     1      50.531   9.463  -4.121  1.00  0.00     0.210 HD
ENDBRANCH  17  25
BRANCH  18  27
ATOM     27  O4  UNK     1      48.436   8.925  -5.651  1.00  0.00    -0.388 OA
ATOM     28  H7  UNK     1      47.896   8.843  -4.847  1.00  0.00     0.210 HD
ENDBRANCH  18  27
ENDBRANCH  12  13
ENDBRANCH   3  12
BRANCH   5  29
ATOM     29  O9  UNK     1      46.720   8.340  -7.927  1.00  0.00    -0.356 OA
ATOM     30  H12 UNK     1      46.205   8.286  -7.103  1.00  0.00     0.218 HD
ENDBRANCH   5  29
BRANCH   8  31
ATOM     31  O10 UNK     1      44.398   8.246  -9.356  1.00  0.00    -0.357 OA
ATOM     32  H13 UNK     1      44.475   7.791  -8.504  1.00  0.00     0.217 HD
ENDBRANCH   8  31
BRANCH  10  33
ATOM     33  C16 UNK     1      43.664  14.107 -12.133  1.00  0.00    -0.002 A 
ATOM     34  C17 UNK     1      44.161  15.306 -11.614  1.00  0.00     0.014 A 
ATOM     35  C19 UNK     1      43.889  16.514 -12.257  1.00  0.00     0.001 A 
ATOM     36  C21 UNK     1      43.120  16.527 -13.421  1.00  0.00     0.000 A 
ATOM     37  C20 UNK     1      42.622  15.333 -13.941  1.00  0.00     0.001 A 
ATOM     38  C18 UNK     1      42.894  14.125 -13.298  1.00  0.00     0.014 A 
ENDBRANCH  10  33
TORSDOF 10
ENDMDL
MODEL 5
REMARK VINA RESULT:      -6.9     15.939     19.010
REMARK  10 active torsions:
REMARK  status: ('A' for Active; 'I' for Inactive)
REMARK    1  A    between atoms: O2_2  and  C4_15 
REMARK    2  A    between atoms: O2_2  and  C7_18 
REMARK    3  A    between atoms: O3_3  and  C1_12 
REMARK    4  A    between atoms: O4_4  and  C2_13 
REMARK    5  A    between atoms: O5_5  and  C3_14 
REMARK    6  A    between atoms: O6_6  and  C6_17 
REMARK    7  A    between atoms: O9_9  and  C9_20 
REMARK    8  A    between atoms: O10_10  and  C12_23 
REMARK    9  A    between atoms: C5_16  and  C6_17 
REMARK   10  A    between atoms: C14_25  and  C16_27 
ROOT
ATOM      1  O8  UNK     1      43.981   1.731   8.566  1.00  0.00    -0.309 OA
ATOM      2  O11 UNK     1      42.057   5.080   9.864  1.00  0.00    -0.287 OA
ATOM      3  C7  UNK     1      40.735   0.259   9.324  1.00  0.00     0.110 A 
ATOM      4  C8  UNK     1      42.063   0.400   8.921  1.00  0.00     0.078 A 
ATOM      5  C9  UNK     1      40.018   1.367   9.777  1.00  0.00     0.134 A 
ATOM      6  C10 UNK     1      42.674   1.654   8.974  1.00  0.00     0.096 A 
ATOM      7  C11 UNK     1      41.956   2.759   9.428  1.00  0.00     0.084 A 
ATOM      8  C12 UNK     1      40.626   2.622   9.831  1.00  0.00     0.118 A 
ATOM      9  C13 UNK     1      42.625   4.069   9.474  1.00  0.00     0.190 A 
ATOM     10  C14 UNK     1      44.612   2.966   8.600  1.00  0.00     0.090 A 
ATOM     11  C15 UNK     1      44.031   4.100   9.021  1.00  0.00     0.094 A 
ENDROOT
BRANCH   3  12
ATOM     12  O2  UNK     1      40.147  -0.971   9.268  1.00  0.00    -0.315 OA
BRANCH  12  13
ATOM     13  C4  UNK     1      39.164  -1.164   8.250  1.00  0.00     0.299 C 
ATOM     14  O1  UNK     1      37.860  -1.102   8.822  1.00  0.00    -0.340 OA
ATOM     15  C5  UNK     1      36.834  -1.266   7.850  1.00  0.00     0.253 C 
ATOM     16  C3  UNK     1      36.916  -2.640   7.194  1.00  0.00     0.189 C 
ATOM     17  C1  UNK     1      38.308  -2.879   6.608  1.00  0.00     0.183 C 
ATOM     18  C2  UNK     1      39.404  -2.536   7.618  1.00  0.00     0.205 C 
BRANCH  15  19
ATOM     19  C6  UNK     1      35.579  -1.129   8.648  1.00  0.00     0.172 C 
ATOM     20  O7  UNK     1      34.547  -1.751   8.446  1.00  0.00    -0.648 OA
BRANCH  19  21
ATOM     21  O6  UNK     1      35.737  -0.212   9.634  1.00  0.00    -0.774 OA
ATOM     22  H10 UNK     1      35.534   0.697   9.325  1.00  0.00     0.167 HD
ENDBRANCH  19  21
ENDBRANCH  15  19
BRANCH  16  23
ATOM     23  O5  UNK     1      35.952  -2.703   6.144  1.00  0.00    -0.390 OA
ATOM     24  H8  UNK     1      36.336  -3.217   5.413  1.00  0.00     0.210 HD
ENDBRANCH  16  23
BRANCH  17  25
ATOM     25  O3  UNK     1      38.406  -4.258   6.249  1.00  0.00    -0.390 OA
ATOM     26  H6  UNK     1      38.572  -4.764   7.061  1.00  0.00     0.210 HD
ENDBRANCH  17  25
BRANCH  18  27
ATOM     27  O4  UNK     1      40.668  -2.508   6.954  1.00  0.00    -0.388 OA
ATOM     28  H7  UNK     1      41.164  -1.748   7.298  1.00  0.00     0.210 HD
ENDBRANCH  18  27
ENDBRANCH  12  13
ENDBRANCH   3  12
BRANCH   5  29
ATOM     29  O9  UNK     1      38.719   1.220  10.169  1.00  0.00    -0.356 OA
ATOM     30  H12 UNK     1      38.225   2.014   9.901  1.00  0.00     0.218 HD
ENDBRANCH   5  29
BRANCH   8  31
ATOM     31  O10 UNK     1      39.894   3.680  10.280  1.00  0.00    -0.357 OA
ATOM     32  H13 UNK     1      40.095   4.479   9.769  1.00  0.00     0.217 HD
ENDBRANCH   8  31
BRANCH  10  33
ATOM     33  C16 UNK     1      46.017   2.935   8.145  1.00  0.00    -0.002 A 
ATOM     34  C17 UNK     1      46.428   1.988   7.203  1.00  0.00     0.014 A 
ATOM     35  C19 UNK     1      47.755   1.960   6.772  1.00  0.00     0.001 A 
ATOM     36  C21 UNK     1      48.674   2.877   7.281  1.00  0.00     0.000 A 
ATOM     37  C20 UNK     1      48.266   3.824   8.222  1.00  0.00     0.001 A 
ATOM     38  C18 UNK     1      46.940   3.852   8.652  1.00  0.00     0.014 A 
ENDBRANCH  10  33
TORSDOF 10
ENDMDL
MODEL 6
REMARK VINA RESULT:      -6.9     16.746     20.087
REMARK  10 active torsions:
REMARK  status: ('A' for Active; 'I' for Inactive)
REMARK    1  A    between atoms: O2_2  and  C4_15 
REMARK    2  A    between atoms: O2_2  and  C7_18 
REMARK    3  A    between atoms: O3_3  and  C1_12 
REMARK    4  A    between atoms: O4_4  and  C2_13 
REMARK    5  A    between atoms: O5_5  and  C3_14 
REMARK    6  A    between atoms: O6_6  and  C6_17 
REMARK    7  A    between atoms: O9_9  and  C9_20 
REMARK    8  A    between atoms: O10_10  and  C12_23 
REMARK    9  A    between atoms: C5_16  and  C6_17 
REMARK   10  A    between atoms: C14_25  and  C16_27 
ROOT
ATOM      1  O8  UNK     1      44.334   2.560   7.966  1.00  0.00    -0.309 OA
ATOM      2  O11 UNK     1      42.902   5.515  10.378  1.00  0.00    -0.287 OA
ATOM      3  C7  UNK     1      40.827   1.574   8.043  1.00  0.00     0.110 A 
ATOM      4  C8  UNK     1      42.192   1.591   7.753  1.00  0.00     0.078 A 
ATOM      5  C9  UNK     1      40.272   2.558   8.862  1.00  0.00     0.134 A 
ATOM      6  C10 UNK     1      43.001   2.596   8.285  1.00  0.00     0.096 A 
ATOM      7  C11 UNK     1      42.445   3.578   9.103  1.00  0.00     0.084 A 
ATOM      8  C12 UNK     1      41.079   3.564   9.395  1.00  0.00     0.118 A 
ATOM      9  C13 UNK     1      43.321   4.624   9.651  1.00  0.00     0.190 A 
ATOM     10  C14 UNK     1      45.162   3.551   8.474  1.00  0.00     0.090 A 
ATOM     11  C15 UNK     1      44.747   4.544   9.275  1.00  0.00     0.094 A 
ENDROOT
BRANCH   3  12
ATOM     12  O2  UNK     1      40.045   0.587   7.518  1.00  0.00    -0.315 OA
BRANCH  12  13
ATOM     13  C4  UNK     1      39.560  -0.398   8.431  1.00  0.00     0.299 C 
ATOM     14  O1  UNK     1      40.610  -0.800   9.307  1.00  0.00    -0.340 OA
ATOM     15  C5  UNK     1      40.181  -1.768  10.258  1.00  0.00     0.253 C 
ATOM     16  C3  UNK     1      39.726  -3.049   9.568  1.00  0.00     0.189 C 
ATOM     17  C1  UNK     1      38.649  -2.749   8.525  1.00  0.00     0.183 C 
ATOM     18  C2  UNK     1      39.061  -1.591   7.615  1.00  0.00     0.205 C 
BRANCH  15  19
ATOM     19  C6  UNK     1      41.405  -2.010  11.079  1.00  0.00     0.172 C 
ATOM     20  O7  UNK     1      41.884  -1.216  11.876  1.00  0.00    -0.648 OA
BRANCH  19  21
ATOM     21  O6  UNK     1      41.922  -3.235  10.819  1.00  0.00    -0.774 OA
ATOM     22  H10 UNK     1      42.034  -3.390   9.857  1.00  0.00     0.167 HD
ENDBRANCH  19  21
ENDBRANCH  15  19
BRANCH  16  23
ATOM     23  O5  UNK     1      39.189  -3.932  10.551  1.00  0.00    -0.390 OA
ATOM     24  H8  UNK     1      38.970  -3.407  11.341  1.00  0.00     0.210 HD
ENDBRANCH  16  23
BRANCH  17  25
ATOM     25  O3  UNK     1      38.455  -3.926   7.739  1.00  0.00    -0.390 OA
ATOM     26  H6  UNK     1      38.286  -4.664   8.348  1.00  0.00     0.210 HD
ENDBRANCH  17  25
BRANCH  18  27
ATOM     27  O4  UNK     1      37.934  -1.168   6.848  1.00  0.00    -0.388 OA
ATOM     28  H7  UNK     1      37.280  -0.799   7.464  1.00  0.00     0.210 HD
ENDBRANCH  18  27
ENDBRANCH  12  13
ENDBRANCH   3  12
BRANCH   5  29
ATOM     29  O9  UNK     1      38.936   2.534   9.140  1.00  0.00    -0.356 OA
ATOM     30  H12 UNK     1      38.813   2.136  10.020  1.00  0.00     0.218 HD
ENDBRANCH   5  29
BRANCH   8  31
ATOM     31  O10 UNK     1      40.500   4.508  10.190  1.00  0.00    -0.357 OA
ATOM     32  H13 UNK     1      40.647   4.305  11.127  1.00  0.00     0.217 HD
ENDBRANCH   8  31
BRANCH  10  33
ATOM     33  C16 UNK     1      46.577   3.415   8.072  1.00  0.00    -0.002 A 
ATOM     34  C17 UNK     1      46.919   2.643   6.959  1.00  0.00     0.014 A 
ATOM     35  C19 UNK     1      48.255   2.515   6.580  1.00  0.00     0.001 A 
ATOM     36  C21 UNK     1      49.253   3.160   7.311  1.00  0.00     0.000 A 
ATOM     37  C20 UNK     1      48.915   3.931   8.423  1.00  0.00     0.001 A 
ATOM     38  C18 UNK     1      47.579   4.058   8.802  1.00  0.00     0.014 A 
ENDBRANCH  10  33
TORSDOF 10
ENDMDL
MODEL 7
REMARK VINA RESULT:      -6.8     15.414     18.541
REMARK  10 active torsions:
REMARK  status: ('A' for Active; 'I' for Inactive)
REMARK    1  A    between atoms: O2_2  and  C4_15 
REMARK    2  A    between atoms: O2_2  and  C7_18 
REMARK    3  A    between atoms: O3_3  and  C1_12 
REMARK    4  A    between atoms: O4_4  and  C2_13 
REMARK    5  A    between atoms: O5_5  and  C3_14 
REMARK    6  A    between atoms: O6_6  and  C6_17 
REMARK    7  A    between atoms: O9_9  and  C9_20 
REMARK    8  A    between atoms: O10_10  and  C12_23 
REMARK    9  A    between atoms: C5_16  and  C6_17 
REMARK   10  A    between atoms: C14_25  and  C16_27 
ROOT
ATOM      1  O8  UNK     1      43.655   0.893   8.538  1.00  0.00    -0.309 OA
ATOM      2  O11 UNK     1      41.878   4.354   9.750  1.00  0.00    -0.287 OA
ATOM      3  C7  UNK     1      40.315  -0.397   9.219  1.00  0.00     0.110 A 
ATOM      4  C8  UNK     1      41.660  -0.330   8.852  1.00  0.00     0.078 A 
ATOM      5  C9  UNK     1      39.647   0.753   9.642  1.00  0.00     0.134 A 
ATOM      6  C10 UNK     1      42.335   0.890   8.910  1.00  0.00     0.096 A 
ATOM      7  C11 UNK     1      41.665   2.036   9.333  1.00  0.00     0.084 A 
ATOM      8  C12 UNK     1      40.319   1.974   9.701  1.00  0.00     0.118 A 
ATOM      9  C13 UNK     1      42.401   3.309   9.386  1.00  0.00     0.190 A 
ATOM     10  C14 UNK     1      44.349   2.093   8.579  1.00  0.00     0.090 A 
ATOM     11  C15 UNK     1      43.818   3.261   8.972  1.00  0.00     0.094 A 
ENDROOT
BRANCH   3  12
ATOM     12  O2  UNK     1      39.664  -1.594   9.158  1.00  0.00    -0.315 OA
BRANCH  12  13
ATOM     13  C4  UNK     1      38.712  -1.752   8.106  1.00  0.00     0.299 C 
ATOM     14  O1  UNK     1      37.412  -1.941   8.659  1.00  0.00    -0.340 OA
ATOM     15  C5  UNK     1      36.412  -2.082   7.655  1.00  0.00     0.253 C 
ATOM     16  C3  UNK     1      36.666  -3.318   6.801  1.00  0.00     0.189 C 
ATOM     17  C1  UNK     1      38.075  -3.289   6.210  1.00  0.00     0.183 C 
ATOM     18  C2  UNK     1      39.121  -2.970   7.278  1.00  0.00     0.205 C 
BRANCH  15  19
ATOM     19  C6  UNK     1      35.152  -2.226   8.444  1.00  0.00     0.172 C 
ATOM     20  O7  UNK     1      34.519  -1.301   8.932  1.00  0.00    -0.648 OA
BRANCH  19  21
ATOM     21  O6  UNK     1      34.800  -3.531   8.550  1.00  0.00    -0.774 OA
ATOM     22  H10 UNK     1      35.557  -4.130   8.379  1.00  0.00     0.167 HD
ENDBRANCH  19  21
ENDBRANCH  15  19
BRANCH  16  23
ATOM     23  O5  UNK     1      35.715  -3.342   5.737  1.00  0.00    -0.390 OA
ATOM     24  H8  UNK     1      35.085  -2.615   5.880  1.00  0.00     0.210 HD
ENDBRANCH  16  23
BRANCH  17  25
ATOM     25  O3  UNK     1      38.345  -4.574   5.647  1.00  0.00    -0.390 OA
ATOM     26  H6  UNK     1      39.008  -4.457   4.946  1.00  0.00     0.210 HD
ENDBRANCH  17  25
BRANCH  18  27
ATOM     27  O4  UNK     1      40.370  -2.684   6.648  1.00  0.00    -0.388 OA
ATOM     28  H7  UNK     1      40.390  -3.163   5.803  1.00  0.00     0.210 HD
ENDBRANCH  18  27
ENDBRANCH  12  13
ENDBRANCH   3  12
BRANCH   5  29
ATOM     29  O9  UNK     1      38.331   0.679   9.999  1.00  0.00    -0.356 OA
ATOM     30  H12 UNK     1      38.270   0.761  10.966  1.00  0.00     0.218 HD
ENDBRANCH   5  29
BRANCH   8  31
ATOM     31  O10 UNK     1      39.632   3.074  10.119  1.00  0.00    -0.357 OA
ATOM     32  H13 UNK     1      38.718   2.844  10.345  1.00  0.00     0.217 HD
ENDBRANCH   8  31
BRANCH  10  33
ATOM     33  C16 UNK     1      45.762   1.982   8.163  1.00  0.00    -0.002 A 
ATOM     34  C17 UNK     1      46.217   2.668   7.033  1.00  0.00     0.014 A 
ATOM     35  C19 UNK     1      47.552   2.565   6.642  1.00  0.00     0.001 A 
ATOM     36  C21 UNK     1      48.436   1.776   7.378  1.00  0.00     0.000 A 
ATOM     37  C20 UNK     1      47.986   1.090   8.506  1.00  0.00     0.001 A 
ATOM     38  C18 UNK     1      46.651   1.194   8.897  1.00  0.00     0.014 A 
ENDBRANCH  10  33
TORSDOF 10
ENDMDL
MODEL 8
REMARK VINA RESULT:      -6.8     16.858     20.033
REMARK  10 active torsions:
REMARK  status: ('A' for Active; 'I' for Inactive)
REMARK    1  A    between atoms: O2_2  and  C4_15 
REMARK    2  A    between atoms: O2_2  and  C7_18 
REMARK    3  A    between atoms: O3_3  and  C1_12 
REMARK    4  A    between atoms: O4_4  and  C2_13 
REMARK    5  A    between atoms: O5_5  and  C3_14 
REMARK    6  A    between atoms: O6_6  and  C6_17 
REMARK    7  A    between atoms: O9_9  and  C9_20 
REMARK    8  A    between atoms: O10_10  and  C12_23 
REMARK    9  A    between atoms: C5_16  and  C6_17 
REMARK   10  A    between atoms: C14_25  and  C16_27 
ROOT
ATOM      1  O8  UNK     1      45.437   2.734   8.937  1.00  0.00    -0.309 OA
ATOM      2  O11 UNK     1      43.431   6.159   9.860  1.00  0.00    -0.287 OA
ATOM      3  C7  UNK     1      42.206   1.282   9.793  1.00  0.00     0.110 A 
ATOM      4  C8  UNK     1      43.538   1.408   9.398  1.00  0.00     0.078 A 
ATOM      5  C9  UNK     1      41.462   2.416  10.122  1.00  0.00     0.134 A 
ATOM      6  C10 UNK     1      44.125   2.673   9.331  1.00  0.00     0.096 A 
ATOM      7  C11 UNK     1      43.380   3.804   9.660  1.00  0.00     0.084 A 
ATOM      8  C12 UNK     1      42.046   3.681  10.056  1.00  0.00     0.118 A 
ATOM      9  C13 UNK     1      44.024   5.124   9.583  1.00  0.00     0.190 A 
ATOM     10  C14 UNK     1      46.044   3.978   8.855  1.00  0.00     0.090 A 
ATOM     11  C15 UNK     1      45.435   5.137   9.150  1.00  0.00     0.094 A 
ENDROOT
BRANCH   3  12
ATOM     12  O2  UNK     1      41.642   0.041   9.854  1.00  0.00    -0.315 OA
BRANCH  12  13
ATOM     13  C4  UNK     1      41.054  -0.454   8.651  1.00  0.00     0.299 C 
ATOM     14  O1  UNK     1      39.866   0.278   8.360  1.00  0.00    -0.340 OA
ATOM     15  C5  UNK     1      39.244  -0.157   7.155  1.00  0.00     0.253 C 
ATOM     16  C3  UNK     1      38.801  -1.611   7.262  1.00  0.00     0.189 C 
ATOM     17  C1  UNK     1      39.973  -2.507   7.660  1.00  0.00     0.183 C 
ATOM     18  C2  UNK     1      40.731  -1.934   8.858  1.00  0.00     0.205 C 
BRANCH  15  19
ATOM     19  C6  UNK     1      38.066   0.754   7.029  1.00  0.00     0.172 C 
ATOM     20  O7  UNK     1      37.010   0.622   7.629  1.00  0.00    -0.648 OA
BRANCH  19  21
ATOM     21  O6  UNK     1      38.326   1.753   6.150  1.00  0.00    -0.774 OA
ATOM     22  H10 UNK     1      38.660   1.411   5.294  1.00  0.00     0.167 HD
ENDBRANCH  19  21
ENDBRANCH  15  19
BRANCH  16  23
ATOM     23  O5  UNK     1      38.304  -2.031   5.992  1.00  0.00    -0.390 OA
ATOM     24  H8  UNK     1      37.647  -1.378   5.694  1.00  0.00     0.210 HD
ENDBRANCH  16  23
BRANCH  17  25
ATOM     25  O3  UNK     1      39.451  -3.793   7.998  1.00  0.00    -0.390 OA
ATOM     26  H6  UNK     1      38.597  -3.894   7.547  1.00  0.00     0.210 HD
ENDBRANCH  17  25
BRANCH  18  27
ATOM     27  O4  UNK     1      41.961  -2.641   9.023  1.00  0.00    -0.388 OA
ATOM     28  H7  UNK     1      42.424  -2.252   9.783  1.00  0.00     0.210 HD
ENDBRANCH  18  27
ENDBRANCH  12  13
ENDBRANCH   3  12
BRANCH   5  29
ATOM     29  O9  UNK     1      40.160   2.283  10.508  1.00  0.00    -0.356 OA
ATOM     30  H12 UNK     1      40.139   2.090  11.461  1.00  0.00     0.218 HD
ENDBRANCH   5  29
BRANCH   8  31
ATOM     31  O10 UNK     1      41.287   4.765  10.385  1.00  0.00    -0.357 OA
ATOM     32  H13 UNK     1      41.190   4.838  11.346  1.00  0.00     0.217 HD
ENDBRANCH   8  31
BRANCH  10  33
ATOM     33  C16 UNK     1      47.457   3.929   8.426  1.00  0.00    -0.002 A 
ATOM     34  C17 UNK     1      47.825   3.173   7.310  1.00  0.00     0.014 A 
ATOM     35  C19 UNK     1      49.159   3.128   6.904  1.00  0.00     0.001 A 
ATOM     36  C21 UNK     1      50.128   3.838   7.611  1.00  0.00     0.000 A 
ATOM     37  C20 UNK     1      49.764   4.594   8.726  1.00  0.00     0.001 A 
ATOM     38  C18 UNK     1      48.430   4.640   9.131  1.00  0.00     0.014 A 
ENDBRANCH  10  33
TORSDOF 10
ENDMDL
MODEL 9
REMARK VINA RESULT:      -6.6     13.408     17.356
REMARK  10 active torsions:
REMARK  status: ('A' for Active; 'I' for Inactive)
REMARK    1  A    between atoms: O2_2  and  C4_15 
REMARK    2  A    between atoms: O2_2  and  C7_18 
REMARK    3  A    between atoms: O3_3  and  C1_12 
REMARK    4  A    between atoms: O4_4  and  C2_13 
REMARK    5  A    between atoms: O5_5  and  C3_14 
REMARK    6  A    between atoms: O6_6  and  C6_17 
REMARK    7  A    between atoms: O9_9  and  C9_20 
REMARK    8  A    between atoms: O10_10  and  C12_23 
REMARK    9  A    between atoms: C5_16  and  C6_17 
REMARK   10  A    between atoms: C14_25  and  C16_27 
ROOT
ATOM      1  O8  UNK     1      37.940  -5.374   5.248  1.00  0.00    -0.309 OA
ATOM      2  O11 UNK     1      34.065  -4.335   5.961  1.00  0.00    -0.287 OA
ATOM      3  C7  UNK     1      38.517  -2.357   7.209  1.00  0.00     0.110 A 
ATOM      4  C8  UNK     1      38.741  -3.509   6.456  1.00  0.00     0.078 A 
ATOM      5  C9  UNK     1      37.213  -1.946   7.490  1.00  0.00     0.134 A 
ATOM      6  C10 UNK     1      37.657  -4.251   5.984  1.00  0.00     0.096 A 
ATOM      7  C11 UNK     1      36.356  -3.839   6.265  1.00  0.00     0.084 A 
ATOM      8  C12 UNK     1      36.127  -2.686   7.020  1.00  0.00     0.118 A 
ATOM      9  C13 UNK     1      35.232  -4.639   5.754  1.00  0.00     0.190 A 
ATOM     10  C14 UNK     1      36.883  -6.135   4.772  1.00  0.00     0.090 A 
ATOM     11  C15 UNK     1      35.589  -5.839   4.972  1.00  0.00     0.094 A 
ENDROOT
BRANCH   3  12
ATOM     12  O2  UNK     1      39.583  -1.639   7.666  1.00  0.00    -0.315 OA
BRANCH  12  13
ATOM     13  C4  UNK     1      40.213  -2.117   8.855  1.00  0.00     0.299 C 
ATOM     14  O1  UNK     1      39.221  -2.473   9.815  1.00  0.00    -0.340 OA
ATOM     15  C5  UNK     1      39.789  -2.980  11.018  1.00  0.00     0.253 C 
ATOM     16  C3  UNK     1      40.646  -1.923  11.705  1.00  0.00     0.189 C 
ATOM     17  C1  UNK     1      41.709  -1.382  10.749  1.00  0.00     0.183 C 
ATOM     18  C2  UNK     1      41.102  -0.999   9.400  1.00  0.00     0.205 C 
BRANCH  15  19
ATOM     19  C6  UNK     1      38.593  -3.319  11.846  1.00  0.00     0.172 C 
ATOM     20  O7  UNK     1      38.570  -3.351  13.068  1.00  0.00    -0.648 OA
BRANCH  19  21
ATOM     21  O6  UNK     1      37.526  -3.594  11.056  1.00  0.00    -0.774 OA
ATOM     22  H10 UNK     1      37.697  -3.368  10.117  1.00  0.00     0.167 HD
ENDBRANCH  19  21
ENDBRANCH  15  19
BRANCH  16  23
ATOM     23  O5  UNK     1      41.290  -2.519  12.830  1.00  0.00    -0.390 OA
ATOM     24  H8  UNK     1      41.533  -3.430  12.592  1.00  0.00     0.210 HD
ENDBRANCH  16  23
BRANCH  17  25
ATOM     25  O3  UNK     1      42.300  -0.229  11.351  1.00  0.00    -0.390 OA
ATOM     26  H6  UNK     1      41.914  -0.128  12.237  1.00  0.00     0.210 HD
ENDBRANCH  17  25
BRANCH  18  27
ATOM     27  O4  UNK     1      42.150  -0.763   8.459  1.00  0.00    -0.388 OA
ATOM     28  H7  UNK     1      42.397  -1.619   8.072  1.00  0.00     0.210 HD
ENDBRANCH  18  27
ENDBRANCH  12  13
ENDBRANCH   3  12
BRANCH   5  29
ATOM     29  O9  UNK     1      37.002  -0.817   8.228  1.00  0.00    -0.356 OA
ATOM     30  H12 UNK     1      36.426  -0.220   7.719  1.00  0.00     0.218 HD
ENDBRANCH   5  29
BRANCH   8  31
ATOM     31  O10 UNK     1      34.869  -2.253   7.315  1.00  0.00    -0.357 OA
ATOM     32  H13 UNK     1      34.376  -2.050   6.505  1.00  0.00     0.217 HD
ENDBRANCH   8  31
BRANCH  10  33
ATOM     33  C16 UNK     1      37.299  -7.317   3.990  1.00  0.00    -0.002 A 
ATOM     34  C17 UNK     1      38.567  -7.872   4.179  1.00  0.00     0.014 A 
ATOM     35  C19 UNK     1      38.959  -8.989   3.441  1.00  0.00     0.001 A 
ATOM     36  C21 UNK     1      38.085  -9.555   2.514  1.00  0.00     0.000 A 
ATOM     37  C20 UNK     1      36.818  -9.004   2.323  1.00  0.00     0.001 A 
ATOM     38  C18 UNK     1      36.426  -7.887   3.061  1.00  0.00     0.014 A 
ENDBRANCH  10  33
TORSDOF 10
ENDMDL
MODEL 10
REMARK VINA RESULT:      -6.6     18.112     21.380
REMARK  10 active torsions:
REMARK  status: ('A' for Active; 'I' for Inactive)
REMARK    1  A    between atoms: O2_2  and  C4_15 
REMARK    2  A    between atoms: O2_2  and  C7_18 
REMARK    3  A    between atoms: O3_3  and  C1_12 
REMARK    4  A    between atoms: O4_4  and  C2_13 
REMARK    5  A    between atoms: O5_5  and  C3_14 
REMARK    6  A    between atoms: O6_6  and  C6_17 
REMARK    7  A    between atoms: O9_9  and  C9_20 
REMARK    8  A    between atoms: O10_10  and  C12_23 
REMARK    9  A    between atoms: C5_16  and  C6_17 
REMARK   10  A    between atoms: C14_25  and  C16_27 
ROOT
ATOM      1  O8  UNK     1      42.833   4.649  10.631  1.00  0.00    -0.309 OA
ATOM      2  O11 UNK     1      46.686   4.188   9.387  1.00  0.00    -0.287 OA
ATOM      3  C7  UNK     1      42.259   2.358   7.856  1.00  0.00     0.110 A 
ATOM      4  C8  UNK     1      42.036   3.198   8.947  1.00  0.00     0.078 A 
ATOM      5  C9  UNK     1      43.556   2.155   7.381  1.00  0.00     0.134 A 
ATOM      6  C10 UNK     1      43.115   3.835   9.563  1.00  0.00     0.096 A 
ATOM      7  C11 UNK     1      44.408   3.632   9.087  1.00  0.00     0.084 A 
ATOM      8  C12 UNK     1      44.635   2.791   7.994  1.00  0.00     0.118 A 
ATOM      9  C13 UNK     1      45.525   4.318   9.754  1.00  0.00     0.190 A 
ATOM     10  C14 UNK     1      43.885   5.290  11.267  1.00  0.00     0.090 A 
ATOM     11  C15 UNK     1      45.171   5.179  10.900  1.00  0.00     0.094 A 
ENDROOT
BRANCH   3  12
ATOM     12  O2  UNK     1      41.199   1.739   7.261  1.00  0.00    -0.315 OA
BRANCH  12  13
ATOM     13  C4  UNK     1      40.428   0.861   8.082  1.00  0.00     0.299 C 
ATOM     14  O1  UNK     1      41.244  -0.218   8.532  1.00  0.00    -0.340 OA
ATOM     15  C5  UNK     1      40.535  -1.118   9.376  1.00  0.00     0.253 C 
ATOM     16  C3  UNK     1      39.381  -1.776   8.628  1.00  0.00     0.189 C 
ATOM     17  C1  UNK     1      38.464  -0.721   8.011  1.00  0.00     0.183 C 
ATOM     18  C2  UNK     1      39.262   0.334   7.245  1.00  0.00     0.205 C 
BRANCH  15  19
ATOM     19  C6  UNK     1      41.572  -2.125   9.753  1.00  0.00     0.172 C 
ATOM     20  O7  UNK     1      41.341  -3.224  10.235  1.00  0.00    -0.648 OA
BRANCH  19  21
ATOM     21  O6  UNK     1      42.815  -1.654   9.489  1.00  0.00    -0.774 OA
ATOM     22  H10 UNK     1      43.025  -0.855  10.019  1.00  0.00     0.167 HD
ENDBRANCH  19  21
ENDBRANCH  15  19
BRANCH  16  23
ATOM     23  O5  UNK     1      38.631  -2.565   9.550  1.00  0.00    -0.390 OA
ATOM     24  H8  UNK     1      38.976  -2.396  10.443  1.00  0.00     0.210 HD
ENDBRANCH  16  23
BRANCH  17  25
ATOM     25  O3  UNK     1      37.568  -1.382   7.117  1.00  0.00    -0.390 OA
ATOM     26  H6  UNK     1      37.299  -2.219   7.532  1.00  0.00     0.210 HD
ENDBRANCH  17  25
BRANCH  18  27
ATOM     27  O4  UNK     1      38.410   1.433   6.923  1.00  0.00    -0.388 OA
ATOM     28  H7  UNK     1      37.628   1.077   6.470  1.00  0.00     0.210 HD
ENDBRANCH  18  27
ENDBRANCH  12  13
ENDBRANCH   3  12
BRANCH   5  29
ATOM     29  O9  UNK     1      43.765   1.332   6.312  1.00  0.00    -0.356 OA
ATOM     30  H12 UNK     1      43.063   1.493   5.658  1.00  0.00     0.218 HD
ENDBRANCH   5  29
BRANCH   8  31
ATOM     31  O10 UNK     1      45.886   2.569   7.502  1.00  0.00    -0.357 OA
ATOM     32  H13 UNK     1      46.216   3.352   7.035  1.00  0.00     0.217 HD
ENDBRANCH   8  31
BRANCH  10  33
ATOM     33  C16 UNK     1      43.471   6.144  12.399  1.00  0.00    -0.002 A 
ATOM     34  C17 UNK     1      43.380   5.607  13.686  1.00  0.00     0.014 A 
ATOM     35  C19 UNK     1      42.990   6.414  14.755  1.00  0.00     0.001 A 
ATOM     36  C21 UNK     1      42.690   7.759  14.542  1.00  0.00     0.000 A 
ATOM     37  C20 UNK     1      42.780   8.299  13.258  1.00  0.00     0.001 A 
ATOM     38  C18 UNK     1      43.170   7.492  12.189  1.00  0.00     0.014 A 
ENDBRANCH  10  33
TORSDOF 10
ENDMDL
MODEL 11
REMARK VINA RESULT:      -6.6     17.217     20.476
REMARK  10 active torsions:
REMARK  status: ('A' for Active; 'I' for Inactive)
REMARK    1  A    between atoms: O2_2  and  C4_15 
REMARK    2  A    between atoms: O2_2  and  C7_18 
REMARK    3  A    between atoms: O3_3  and  C1_12 
REMARK    4  A    between atoms: O4_4  and  C2_13 
REMARK    5  A    between atoms: O5_5  and  C3_14 
REMARK    6  A    between atoms: O6_6  and  C6_17 
REMARK    7  A    between atoms: O9_9  and  C9_20 
REMARK    8  A    between atoms: O10_10  and  C12_23 
REMARK    9  A    between atoms: C5_16  and  C6_17 
REMARK   10  A    between atoms: C14_25  and  C16_27 
ROOT
ATOM      1  O8  UNK     1      45.524   2.289   9.234  1.00  0.00    -0.309 OA
ATOM      2  O11 UNK     1      44.333   5.218  11.803  1.00  0.00    -0.287 OA
ATOM      3  C7  UNK     1      42.587   0.649  10.634  1.00  0.00     0.110 A 
ATOM      4  C8  UNK     1      43.729   0.894   9.872  1.00  0.00     0.078 A 
ATOM      5  C9  UNK     1      42.124   1.612  11.533  1.00  0.00     0.134 A 
ATOM      6  C10 UNK     1      44.408   2.106  10.009  1.00  0.00     0.096 A 
ATOM      7  C11 UNK     1      43.944   3.065  10.907  1.00  0.00     0.084 A 
ATOM      8  C12 UNK     1      42.801   2.823  11.673  1.00  0.00     0.118 A 
ATOM      9  C13 UNK     1      44.681   4.332  11.033  1.00  0.00     0.190 A 
ATOM     10  C14 UNK     1      46.215   3.486   9.344  1.00  0.00     0.090 A 
ATOM     11  C15 UNK     1      45.873   4.483  10.174  1.00  0.00     0.094 A 
ENDROOT
BRANCH   3  12
ATOM     12  O2  UNK     1      41.930  -0.538  10.492  1.00  0.00    -0.315 OA
BRANCH  12  13
ATOM     13  C4  UNK     1      41.362  -0.805   9.209  1.00  0.00     0.299 C 
ATOM     14  O1  UNK     1      40.455   0.237   8.858  1.00  0.00    -0.340 OA
ATOM     15  C5  UNK     1      39.872   0.038   7.575  1.00  0.00     0.253 C 
ATOM     16  C3  UNK     1      39.042  -1.240   7.543  1.00  0.00     0.189 C 
ATOM     17  C1  UNK     1      39.878  -2.440   7.989  1.00  0.00     0.183 C 
ATOM     18  C2  UNK     1      40.630  -2.145   9.287  1.00  0.00     0.205 C 
BRANCH  15  19
ATOM     19  C6  UNK     1      39.006   1.243   7.400  1.00  0.00     0.172 C 
ATOM     20  O7  UNK     1      38.677   2.006   8.296  1.00  0.00    -0.648 OA
BRANCH  19  21
ATOM     21  O6  UNK     1      38.627   1.376   6.106  1.00  0.00    -0.774 OA
ATOM     22  H10 UNK     1      39.394   1.347   5.495  1.00  0.00     0.167 HD
ENDBRANCH  19  21
ENDBRANCH  15  19
BRANCH  16  23
ATOM     23  O5  UNK     1      38.589  -1.458   6.208  1.00  0.00    -0.390 OA
ATOM     24  H8  UNK     1      39.233  -1.053   5.601  1.00  0.00     0.210 HD
ENDBRANCH  16  23
BRANCH  17  25
ATOM     25  O3  UNK     1      38.994  -3.544   8.191  1.00  0.00    -0.390 OA
ATOM     26  H6  UNK     1      39.517  -4.359   8.120  1.00  0.00     0.210 HD
ENDBRANCH  17  25
BRANCH  18  27
ATOM     27  O4  UNK     1      41.596  -3.170   9.518  1.00  0.00    -0.388 OA
ATOM     28  H7  UNK     1      41.120  -4.014   9.583  1.00  0.00     0.210 HD
ENDBRANCH  18  27
ENDBRANCH  12  13
ENDBRANCH   3  12
BRANCH   5  29
ATOM     29  O9  UNK     1      41.006   1.364  12.275  1.00  0.00    -0.356 OA
ATOM     30  H12 UNK     1      41.188   0.609  12.862  1.00  0.00     0.218 HD
ENDBRANCH   5  29
BRANCH   8  31
ATOM     31  O10 UNK     1      42.319   3.739  12.560  1.00  0.00    -0.357 OA
ATOM     32  H13 UNK     1      41.497   4.134  12.234  1.00  0.00     0.217 HD
ENDBRANCH   8  31
BRANCH  10  33
ATOM     33  C16 UNK     1      47.402   3.576   8.468  1.00  0.00    -0.002 A 
ATOM     34  C17 UNK     1      47.439   2.871   7.263  1.00  0.00     0.014 A 
ATOM     35  C19 UNK     1      48.560   2.958   6.436  1.00  0.00     0.001 A 
ATOM     36  C21 UNK     1      49.645   3.749   6.811  1.00  0.00     0.000 A 
ATOM     37  C20 UNK     1      49.611   4.455   8.014  1.00  0.00     0.001 A 
ATOM     38  C18 UNK     1      48.490   4.368   8.841  1.00  0.00     0.014 A 
ENDBRANCH  10  33
TORSDOF 10
ENDMDL
MODEL 12
REMARK VINA RESULT:      -6.6     12.893     16.411
REMARK  10 active torsions:
REMARK  status: ('A' for Active; 'I' for Inactive)
REMARK    1  A    between atoms: O2_2  and  C4_15 
REMARK    2  A    between atoms: O2_2  and  C7_18 
REMARK    3  A    between atoms: O3_3  and  C1_12 
REMARK    4  A    between atoms: O4_4  and  C2_13 
REMARK    5  A    between atoms: O5_5  and  C3_14 
REMARK    6  A    between atoms: O6_6  and  C6_17 
REMARK    7  A    between atoms: O9_9  and  C9_20 
REMARK    8  A    between atoms: O10_10  and  C12_23 
REMARK    9  A    between atoms: C5_16  and  C6_17 
REMARK   10  A    between atoms: C14_25  and  C16_27 
ROOT
ATOM      1  O8  UNK     1      37.014  -5.476   5.340  1.00  0.00    -0.309 OA
ATOM      2  O11 UNK     1      33.033  -6.024   6.015  1.00  0.00    -0.287 OA
ATOM      3  C7  UNK     1      36.336  -2.427   7.217  1.00  0.00     0.110 A 
ATOM      4  C8  UNK     1      37.004  -3.417   6.496  1.00  0.00     0.078 A 
ATOM      5  C9  UNK     1      34.972  -2.554   7.484  1.00  0.00     0.134 A 
ATOM      6  C10 UNK     1      36.304  -4.537   6.043  1.00  0.00     0.096 A 
ATOM      7  C11 UNK     1      34.942  -4.661   6.311  1.00  0.00     0.084 A 
ATOM      8  C12 UNK     1      34.270  -3.672   7.032  1.00  0.00     0.118 A 
ATOM      9  C13 UNK     1      34.229  -5.850   5.820  1.00  0.00     0.190 A 
ATOM     10  C14 UNK     1      36.346  -6.602   4.883  1.00  0.00     0.090 A 
ATOM     11  C15 UNK     1      35.038  -6.834   5.072  1.00  0.00     0.094 A 
ENDROOT
BRANCH   3  12
ATOM     12  O2  UNK     1      37.029  -1.337   7.656  1.00  0.00    -0.315 OA
BRANCH  12  13
ATOM     13  C4  UNK     1      38.450  -1.464   7.715  1.00  0.00     0.299 C 
ATOM     14  O1  UNK     1      38.820  -2.174   8.894  1.00  0.00    -0.340 OA
ATOM     15  C5  UNK     1      40.229  -2.353   8.999  1.00  0.00     0.253 C 
ATOM     16  C3  UNK     1      40.945  -1.011   9.100  1.00  0.00     0.189 C 
ATOM     17  C1  UNK     1      40.564  -0.104   7.930  1.00  0.00     0.183 C 
ATOM     18  C2  UNK     1      39.049  -0.058   7.730  1.00  0.00     0.205 C 
BRANCH  15  19
ATOM     19  C6  UNK     1      40.383  -3.138  10.260  1.00  0.00     0.172 C 
ATOM     20  O7  UNK     1      39.499  -3.323  11.084  1.00  0.00    -0.648 OA
BRANCH  19  21
ATOM     21  O6  UNK     1      41.645  -3.620  10.373  1.00  0.00    -0.774 OA
ATOM     22  H10 UNK     1      41.718  -4.538  10.037  1.00  0.00     0.167 HD
ENDBRANCH  19  21
ENDBRANCH  15  19
BRANCH  16  23
ATOM     23  O5  UNK     1      42.352  -1.241   9.073  1.00  0.00    -0.390 OA
ATOM     24  H8  UNK     1      42.506  -2.192   9.208  1.00  0.00     0.210 HD
ENDBRANCH  16  23
BRANCH  17  25
ATOM     25  O3  UNK     1      41.048   1.210   8.213  1.00  0.00    -0.390 OA
ATOM     26  H6  UNK     1      41.371   1.592   7.381  1.00  0.00     0.210 HD
ENDBRANCH  17  25
BRANCH  18  27
ATOM     27  O4  UNK     1      38.755   0.567   6.480  1.00  0.00    -0.388 OA
ATOM     28  H7  UNK     1      38.273  -0.077   5.935  1.00  0.00     0.210 HD
ENDBRANCH  18  27
ENDBRANCH  12  13
ENDBRANCH   3  12
BRANCH   5  29
ATOM     29  O9  UNK     1      34.326  -1.580   8.189  1.00  0.00    -0.356 OA
ATOM     30  H12 UNK     1      34.388  -1.795   9.137  1.00  0.00     0.218 HD
ENDBRANCH   5  29
BRANCH   8  31
ATOM     31  O10 UNK     1      32.939  -3.760   7.312  1.00  0.00    -0.357 OA
ATOM     32  H13 UNK     1      32.782  -4.373   8.047  1.00  0.00     0.217 HD
ENDBRANCH   8  31
BRANCH  10  33
ATOM     33  C16 UNK     1      37.203  -7.545   4.135  1.00  0.00    -0.002 A 
ATOM     34  C17 UNK     1      38.557  -7.670   4.458  1.00  0.00     0.014 A 
ATOM     35  C19 UNK     1      39.365  -8.561   3.752  1.00  0.00     0.001 A 
ATOM     36  C21 UNK     1      38.823  -9.331   2.723  1.00  0.00     0.000 A 
ATOM     37  C20 UNK     1      37.472  -9.209   2.399  1.00  0.00     0.001 A 
ATOM     38  C18 UNK     1      36.663  -8.318   3.105  1.00  0.00     0.014 A 
ENDBRANCH  10  33
TORSDOF 10
ENDMDL
MODEL 13
REMARK VINA RESULT:      -6.6     18.557     21.224
REMARK  10 active torsions:
REMARK  status: ('A' for Active; 'I' for Inactive)
REMARK    1  A    between atoms: O2_2  and  C4_15 
REMARK    2  A    between atoms: O2_2  and  C7_18 
REMARK    3  A    between atoms: O3_3  and  C1_12 
REMARK    4  A    between atoms: O4_4  and  C2_13 
REMARK    5  A    between atoms: O5_5  and  C3_14 
REMARK    6  A    between atoms: O6_6  and  C6_17 
REMARK    7  A    between atoms: O9_9  and  C9_20 
REMARK    8  A    between atoms: O10_10  and  C12_23 
REMARK    9  A    between atoms: C5_16  and  C6_17 
REMARK   10  A    between atoms: C14_25  and  C16_27 
ROOT
ATOM      1  O8  UNK     1      44.546   9.799  -9.376  1.00  0.00    -0.309 OA
ATOM      2  O11 UNK     1      44.734  12.522 -12.401  1.00  0.00    -0.287 OA
ATOM      3  C7  UNK     1      47.894  11.099  -8.757  1.00  0.00     0.110 A 
ATOM      4  C8  UNK     1      46.720  10.354  -8.640  1.00  0.00     0.078 A 
ATOM      5  C9  UNK     1      48.022  12.049  -9.771  1.00  0.00     0.134 A 
ATOM      6  C10 UNK     1      45.674  10.561  -9.540  1.00  0.00     0.096 A 
ATOM      7  C11 UNK     1      45.805  11.511 -10.552  1.00  0.00     0.084 A 
ATOM      8  C12 UNK     1      46.978  12.259 -10.672  1.00  0.00     0.118 A 
ATOM      9  C13 UNK     1      44.687  11.708 -11.488  1.00  0.00     0.190 A 
ATOM     10  C14 UNK     1      43.487   9.989 -10.251  1.00  0.00     0.090 A 
ATOM     11  C15 UNK     1      43.494  10.866 -11.267  1.00  0.00     0.094 A 
ENDROOT
BRANCH   3  12
ATOM     12  O2  UNK     1      48.910  10.889  -7.872  1.00  0.00    -0.315 OA
BRANCH  12  13
ATOM     13  C4  UNK     1      48.647  11.215  -6.507  1.00  0.00     0.299 C 
ATOM     14  O1  UNK     1      49.100  12.539  -6.233  1.00  0.00    -0.340 OA
ATOM     15  C5  UNK     1      48.844  12.932  -4.889  1.00  0.00     0.253 C 
ATOM     16  C3  UNK     1      49.596  12.042  -3.906  1.00  0.00     0.189 C 
ATOM     17  C1  UNK     1      49.268  10.569  -4.148  1.00  0.00     0.183 C 
ATOM     18  C2  UNK     1      49.388  10.207  -5.629  1.00  0.00     0.205 C 
BRANCH  15  19
ATOM     19  C6  UNK     1      49.353  14.335  -4.838  1.00  0.00     0.172 C 
ATOM     20  O7  UNK     1      48.653  15.337  -4.855  1.00  0.00    -0.648 OA
BRANCH  19  21
ATOM     21  O6  UNK     1      50.707  14.351  -4.775  1.00  0.00    -0.774 OA
ATOM     22  H10 UNK     1      51.110  13.674  -5.359  1.00  0.00     0.167 HD
ENDBRANCH  19  21
ENDBRANCH  15  19
BRANCH  16  23
ATOM     23  O5  UNK     1      49.206  12.395  -2.580  1.00  0.00    -0.390 OA
ATOM     24  H8  UNK     1      49.725  11.855  -1.959  1.00  0.00     0.210 HD
ENDBRANCH  16  23
BRANCH  17  25
ATOM     25  O3  UNK     1      50.187   9.781  -3.389  1.00  0.00    -0.390 OA
ATOM     26  H6  UNK     1      50.651  10.376  -2.777  1.00  0.00     0.210 HD
ENDBRANCH  17  25
BRANCH  18  27
ATOM     27  O4  UNK     1      48.817   8.917  -5.849  1.00  0.00    -0.388 OA
ATOM     28  H7  UNK     1      47.876   8.967  -5.610  1.00  0.00     0.210 HD
ENDBRANCH  18  27
ENDBRANCH  12  13
ENDBRANCH   3  12
BRANCH   5  29
ATOM     29  O9  UNK     1      49.174  12.774  -9.878  1.00  0.00    -0.356 OA
ATOM     30  H12 UNK     1      49.648  12.481 -10.676  1.00  0.00     0.218 HD
ENDBRANCH   5  29
BRANCH   8  31
ATOM     31  O10 UNK     1      47.141  13.196 -11.649  1.00  0.00    -0.357 OA
ATOM     32  H13 UNK     1      46.287  13.574 -11.908  1.00  0.00     0.217 HD
ENDBRANCH   8  31
BRANCH  10  33
ATOM     33  C16 UNK     1      42.326   9.114  -9.987  1.00  0.00    -0.002 A 
ATOM     34  C17 UNK     1      42.515   7.750  -9.748  1.00  0.00     0.014 A 
ATOM     35  C19 UNK     1      41.419   6.925  -9.498  1.00  0.00     0.001 A 
ATOM     36  C21 UNK     1      40.131   7.460  -9.485  1.00  0.00     0.000 A 
ATOM     37  C20 UNK     1      39.939   8.821  -9.724  1.00  0.00     0.001 A 
ATOM     38  C18 UNK     1      41.035   9.646  -9.974  1.00  0.00     0.014 A 
ENDBRANCH  10  33
TORSDOF 10
ENDMDL
MODEL 14
REMARK VINA RESULT:      -6.5     16.010     19.113
REMARK  10 active torsions:
REMARK  status: ('A' for Active; 'I' for Inactive)
REMARK    1  A    between atoms: O2_2  and  C4_15 
REMARK    2  A    between atoms: O2_2  and  C7_18 
REMARK    3  A    between atoms: O3_3  and  C1_12 
REMARK    4  A    between atoms: O4_4  and  C2_13 
REMARK    5  A    between atoms: O5_5  and  C3_14 
REMARK    6  A    between atoms: O6_6  and  C6_17 
REMARK    7  A    between atoms: O9_9  and  C9_20 
REMARK    8  A    between atoms: O10_10  and  C12_23 
REMARK    9  A    between atoms: C5_16  and  C6_17 
REMARK   10  A    between atoms: C14_25  and  C16_27 
ROOT
ATOM      1  O8  UNK     1      43.196   1.669   8.582  1.00  0.00    -0.309 OA
ATOM      2  O11 UNK     1      42.656   3.435  12.214  1.00  0.00    -0.287 OA
ATOM      3  C7  UNK     1      39.560   1.486   8.762  1.00  0.00     0.110 A 
ATOM      4  C8  UNK     1      40.872   1.356   8.304  1.00  0.00     0.078 A 
ATOM      5  C9  UNK     1      39.306   2.083   9.998  1.00  0.00     0.134 A 
ATOM      6  C10 UNK     1      41.929   1.825   9.085  1.00  0.00     0.096 A 
ATOM      7  C11 UNK     1      41.673   2.421  10.318  1.00  0.00     0.084 A 
ATOM      8  C12 UNK     1      40.361   2.553  10.781  1.00  0.00     0.118 A 
ATOM      9  C13 UNK     1      42.806   2.904  11.121  1.00  0.00     0.190 A 
ATOM     10  C14 UNK     1      44.266   2.132   9.332  1.00  0.00     0.090 A 
ATOM     11  C15 UNK     1      44.149   2.717  10.535  1.00  0.00     0.094 A 
ENDROOT
BRANCH   3  12
ATOM     12  O2  UNK     1      38.534   1.025   7.992  1.00  0.00    -0.315 OA
BRANCH  12  13
ATOM     13  C4  UNK     1      38.072  -0.298   8.267  1.00  0.00     0.299 C 
ATOM     14  O1  UNK     1      38.624  -1.208   7.320  1.00  0.00    -0.340 OA
ATOM     15  C5  UNK     1      38.216  -2.551   7.557  1.00  0.00     0.253 C 
ATOM     16  C3  UNK     1      36.706  -2.697   7.416  1.00  0.00     0.189 C 
ATOM     17  C1  UNK     1      35.978  -1.705   8.323  1.00  0.00     0.183 C 
ATOM     18  C2  UNK     1      36.545  -0.293   8.174  1.00  0.00     0.205 C 
BRANCH  15  19
ATOM     19  C6  UNK     1      38.930  -3.320   6.494  1.00  0.00     0.172 C 
ATOM     20  O7  UNK     1      38.434  -4.209   5.817  1.00  0.00    -0.648 OA
BRANCH  19  21
ATOM     21  O6  UNK     1      40.213  -2.900   6.379  1.00  0.00    -0.774 OA
ATOM     22  H10 UNK     1      40.516  -2.896   5.446  1.00  0.00     0.167 HD
ENDBRANCH  19  21
ENDBRANCH  15  19
BRANCH  16  23
ATOM     23  O5  UNK     1      36.338  -4.024   7.788  1.00  0.00    -0.390 OA
ATOM     24  H8  UNK     1      36.401  -4.588   6.997  1.00  0.00     0.210 HD
ENDBRANCH  16  23
BRANCH  17  25
ATOM     25  O3  UNK     1      34.596  -1.704   7.959  1.00  0.00    -0.390 OA
ATOM     26  H6  UNK     1      34.101  -1.279   8.679  1.00  0.00     0.210 HD
ENDBRANCH  17  25
BRANCH  18  27
ATOM     27  O4  UNK     1      36.036   0.535   9.220  1.00  0.00    -0.388 OA
ATOM     28  H7  UNK     1      35.229   0.115   9.561  1.00  0.00     0.210 HD
ENDBRANCH  18  27
ENDBRANCH  12  13
ENDBRANCH   3  12
BRANCH   5  29
ATOM     29  O9  UNK     1      38.021   2.206  10.439  1.00  0.00    -0.356 OA
ATOM     30  H12 UNK     1      37.536   2.778   9.819  1.00  0.00     0.218 HD
ENDBRANCH   5  29
BRANCH   8  31
ATOM     31  O10 UNK     1      40.073   3.130  11.981  1.00  0.00    -0.357 OA
ATOM     32  H13 UNK     1      39.331   3.748  11.897  1.00  0.00     0.217 HD
ENDBRANCH   8  31
BRANCH  10  33
ATOM     33  C16 UNK     1      45.582   1.910   8.701  1.00  0.00    -0.002 A 
ATOM     34  C17 UNK     1      45.866   2.471   7.453  1.00  0.00     0.014 A 
ATOM     35  C19 UNK     1      47.110   2.262   6.858  1.00  0.00     0.001 A 
ATOM     36  C21 UNK     1      48.074   1.492   7.507  1.00  0.00     0.000 A 
ATOM     37  C20 UNK     1      47.794   0.929   8.753  1.00  0.00     0.001 A 
ATOM     38  C18 UNK     1      46.550   1.138   9.348  1.00  0.00     0.014 A 
ENDBRANCH  10  33
TORSDOF 10
ENDMDL
MODEL 15
REMARK VINA RESULT:      -6.5     13.104     16.185
REMARK  10 active torsions:
REMARK  status: ('A' for Active; 'I' for Inactive)
REMARK    1  A    between atoms: O2_2  and  C4_15 
REMARK    2  A    between atoms: O2_2  and  C7_18 
REMARK    3  A    between atoms: O3_3  and  C1_12 
REMARK    4  A    between atoms: O4_4  and  C2_13 
REMARK    5  A    between atoms: O5_5  and  C3_14 
REMARK    6  A    between atoms: O6_6  and  C6_17 
REMARK    7  A    between atoms: O9_9  and  C9_20 
REMARK    8  A    between atoms: O10_10  and  C12_23 
REMARK    9  A    between atoms: C5_16  and  C6_17 
REMARK   10  A    between atoms: C14_25  and  C16_27 
ROOT
ATOM      1  O8  UNK     1      38.583 -10.845   7.084  1.00  0.00    -0.309 OA
ATOM      2  O11 UNK     1      38.792 -11.828   3.135  1.00  0.00    -0.287 OA
ATOM      3  C7  UNK     1      37.132  -7.815   5.672  1.00  0.00     0.110 A 
ATOM      4  C8  UNK     1      37.609  -8.751   6.589  1.00  0.00     0.078 A 
ATOM      5  C9  UNK     1      37.174  -8.090   4.304  1.00  0.00     0.134 A 
ATOM      6  C10 UNK     1      38.128  -9.965   6.136  1.00  0.00     0.096 A 
ATOM      7  C11 UNK     1      38.169 -10.237   4.769  1.00  0.00     0.084 A 
ATOM      8  C12 UNK     1      37.692  -9.302   3.848  1.00  0.00     0.118 A 
ATOM      9  C13 UNK     1      38.723 -11.523   4.319  1.00  0.00     0.190 A 
ATOM     10  C14 UNK     1      39.097 -12.062   6.663  1.00  0.00     0.090 A 
ATOM     11  C15 UNK     1      39.195 -12.437   5.378  1.00  0.00     0.094 A 
ENDROOT
BRANCH   3  12
ATOM     12  O2  UNK     1      36.627  -6.632   6.125  1.00  0.00    -0.315 OA
BRANCH  12  13
ATOM     13  C4  UNK     1      37.543  -5.753   6.779  1.00  0.00     0.299 C 
ATOM     14  O1  UNK     1      37.006  -5.346   8.036  1.00  0.00    -0.340 OA
ATOM     15  C5  UNK     1      37.888  -4.484   8.747  1.00  0.00     0.253 C 
ATOM     16  C3  UNK     1      38.127  -3.190   7.978  1.00  0.00     0.189 C 
ATOM     17  C1  UNK     1      38.626  -3.485   6.564  1.00  0.00     0.183 C 
ATOM     18  C2  UNK     1      37.761  -4.540   5.875  1.00  0.00     0.205 C 
BRANCH  15  19
ATOM     19  C6  UNK     1      37.155  -4.221  10.022  1.00  0.00     0.172 C 
ATOM     20  O7  UNK     1      35.960  -4.404  10.196  1.00  0.00    -0.648 OA
BRANCH  19  21
ATOM     21  O6  UNK     1      38.000  -3.746  10.970  1.00  0.00    -0.774 OA
ATOM     22  H10 UNK     1      38.138  -2.779  10.886  1.00  0.00     0.167 HD
ENDBRANCH  19  21
ENDBRANCH  15  19
BRANCH  16  23
ATOM     23  O5  UNK     1      39.111  -2.423   8.669  1.00  0.00    -0.390 OA
ATOM     24  H8  UNK     1      38.652  -1.730   9.175  1.00  0.00     0.210 HD
ENDBRANCH  16  23
BRANCH  17  25
ATOM     25  O3  UNK     1      38.579  -2.268   5.816  1.00  0.00    -0.390 OA
ATOM     26  H6  UNK     1      39.493  -1.966   5.685  1.00  0.00     0.210 HD
ENDBRANCH  17  25
BRANCH  18  27
ATOM     27  O4  UNK     1      38.410  -4.981   4.682  1.00  0.00    -0.388 OA
ATOM     28  H7  UNK     1      37.846  -5.658   4.272  1.00  0.00     0.210 HD
ENDBRANCH  18  27
ENDBRANCH  12  13
ENDBRANCH   3  12
BRANCH   5  29
ATOM     29  O9  UNK     1      36.705  -7.168   3.413  1.00  0.00    -0.356 OA
ATOM     30  H12 UNK     1      36.389  -7.638   2.621  1.00  0.00     0.218 HD
ENDBRANCH   5  29
BRANCH   8  31
ATOM     31  O10 UNK     1      37.716  -9.534   2.505  1.00  0.00    -0.357 OA
ATOM     32  H13 UNK     1      37.591 -10.477   2.316  1.00  0.00     0.217 HD
ENDBRANCH   8  31
BRANCH  10  33
ATOM     33  C16 UNK     1      39.561 -12.930   7.764  1.00  0.00    -0.002 A 
ATOM     34  C17 UNK     1      40.422 -13.999   7.500  1.00  0.00     0.014 A 
ATOM     35  C19 UNK     1      40.861 -14.818   8.540  1.00  0.00     0.001 A 
ATOM     36  C21 UNK     1      40.442 -14.572   9.847  1.00  0.00     0.000 A 
ATOM     37  C20 UNK     1      39.582 -13.506  10.115  1.00  0.00     0.001 A 
ATOM     38  C18 UNK     1      39.143 -12.687   9.074  1.00  0.00     0.014 A 
ENDBRANCH  10  33
TORSDOF 10
ENDMDL
MODEL 16
REMARK VINA RESULT:      -6.5     16.827     20.010
REMARK  10 active torsions:
REMARK  status: ('A' for Active; 'I' for Inactive)
REMARK    1  A    between atoms: O2_2  and  C4_15 
REMARK    2  A    between atoms: O2_2  and  C7_18 
REMARK    3  A    between atoms: O3_3  and  C1_12 
REMARK    4  A    between atoms: O4_4  and  C2_13 
REMARK    5  A    between atoms: O5_5  and  C3_14 
REMARK    6  A    between atoms: O6_6  and  C6_17 
REMARK    7  A    between atoms: O9_9  and  C9_20 
REMARK    8  A    between atoms: O10_10  and  C12_23 
REMARK    9  A    between atoms: C5_16  and  C6_17 
REMARK   10  A    between atoms: C14_25  and  C16_27 
ROOT
ATOM      1  O8  UNK     1      45.314   1.198   8.894  1.00  0.00    -0.309 OA
ATOM      2  O11 UNK     1      45.129   2.413  12.779  1.00  0.00    -0.287 OA
ATOM      3  C7  UNK     1      42.330  -0.628   9.913  1.00  0.00     0.110 A 
ATOM      4  C8  UNK     1      43.378  -0.132   9.138  1.00  0.00     0.078 A 
ATOM      5  C9  UNK     1      42.208  -0.250  11.252  1.00  0.00     0.134 A 
ATOM      6  C10 UNK     1      44.306   0.745   9.705  1.00  0.00     0.096 A 
ATOM      7  C11 UNK     1      44.182   1.120  11.041  1.00  0.00     0.084 A 
ATOM      8  C12 UNK     1      43.133   0.625  11.821  1.00  0.00     0.118 A 
ATOM      9  C13 UNK     1      45.174   2.043  11.613  1.00  0.00     0.190 A 
ATOM     10  C14 UNK     1      46.246   2.076   9.428  1.00  0.00     0.090 A 
ATOM     11  C15 UNK     1      46.238   2.506  10.699  1.00  0.00     0.094 A 
ENDROOT
BRANCH   3  12
ATOM     12  O2  UNK     1      41.429  -1.483   9.350  1.00  0.00    -0.315 OA
BRANCH  12  13
ATOM     13  C4  UNK     1      40.359  -0.890   8.613  1.00  0.00     0.299 C 
ATOM     14  O1  UNK     1      39.447  -0.262   9.510  1.00  0.00    -0.340 OA
ATOM     15  C5  UNK     1      38.367   0.369   8.830  1.00  0.00     0.253 C 
ATOM     16  C3  UNK     1      37.533  -0.651   8.063  1.00  0.00     0.189 C 
ATOM     17  C1  UNK     1      38.412  -1.468   7.116  1.00  0.00     0.183 C 
ATOM     18  C2  UNK     1      39.656  -1.998   7.828  1.00  0.00     0.205 C 
BRANCH  15  19
ATOM     19  C6  UNK     1      37.575   0.983   9.938  1.00  0.00     0.172 C 
ATOM     20  O7  UNK     1      36.355   1.027   9.988  1.00  0.00    -0.648 OA
BRANCH  19  21
ATOM     21  O6  UNK     1      38.396   1.492  10.888  1.00  0.00    -0.774 OA
ATOM     22  H10 UNK     1      38.838   2.315  10.589  1.00  0.00     0.167 HD
ENDBRANCH  19  21
ENDBRANCH  15  19
BRANCH  16  23
ATOM     23  O5  UNK     1      36.548   0.045   7.301  1.00  0.00    -0.390 OA
ATOM     24  H8  UNK     1      36.998   0.734   6.783  1.00  0.00     0.210 HD
ENDBRANCH  16  23
BRANCH  17  25
ATOM     25  O3  UNK     1      37.637  -2.565   6.629  1.00  0.00    -0.390 OA
ATOM     26  H6  UNK     1      38.111  -3.383   6.853  1.00  0.00     0.210 HD
ENDBRANCH  17  25
BRANCH  18  27
ATOM     27  O4  UNK     1      40.573  -2.512   6.861  1.00  0.00    -0.388 OA
ATOM     28  H7  UNK     1      40.585  -3.479   6.951  1.00  0.00     0.210 HD
ENDBRANCH  18  27
ENDBRANCH  12  13
ENDBRANCH   3  12
BRANCH   5  29
ATOM     29  O9  UNK     1      41.179  -0.740  12.003  1.00  0.00    -0.356 OA
ATOM     30  H12 UNK     1      41.496  -1.526  12.482  1.00  0.00     0.218 HD
ENDBRANCH   5  29
BRANCH   8  31
ATOM     31  O10 UNK     1      42.981   0.971  13.130  1.00  0.00    -0.357 OA
ATOM     32  H13 UNK     1      42.116   1.381  13.279  1.00  0.00     0.217 HD
ENDBRANCH   8  31
BRANCH  10  33
ATOM     33  C16 UNK     1      47.290   2.497   8.471  1.00  0.00    -0.002 A 
ATOM     34  C17 UNK     1      47.015   2.527   7.101  1.00  0.00     0.014 A 
ATOM     35  C19 UNK     1      48.000   2.926   6.198  1.00  0.00     0.001 A 
ATOM     36  C21 UNK     1      49.262   3.298   6.661  1.00  0.00     0.000 A 
ATOM     37  C20 UNK     1      49.540   3.269   8.028  1.00  0.00     0.001 A 
ATOM     38  C18 UNK     1      48.555   2.870   8.931  1.00  0.00     0.014 A 
ENDBRANCH  10  33
TORSDOF 10
ENDMDL
MODEL 17
REMARK VINA RESULT:      -6.5     14.219     17.812
REMARK  10 active torsions:
REMARK  status: ('A' for Active; 'I' for Inactive)
REMARK    1  A    between atoms: O2_2  and  C4_15 
REMARK    2  A    between atoms: O2_2  and  C7_18 
REMARK    3  A    between atoms: O3_3  and  C1_12 
REMARK    4  A    between atoms: O4_4  and  C2_13 
REMARK    5  A    between atoms: O5_5  and  C3_14 
REMARK    6  A    between atoms: O6_6  and  C6_17 
REMARK    7  A    between atoms: O9_9  and  C9_20 
REMARK    8  A    between atoms: O10_10  and  C12_23 
REMARK    9  A    between atoms: C5_16  and  C6_17 
REMARK   10  A    between atoms: C14_25  and  C16_27 
ROOT
ATOM      1  O8  UNK     1      41.116  -0.603   8.837  1.00  0.00    -0.309 OA
ATOM      2  O11 UNK     1      38.709   1.904   6.713  1.00  0.00    -0.287 OA
ATOM      3  C7  UNK     1      37.950  -2.353   9.280  1.00  0.00     0.110 A 
ATOM      4  C8  UNK     1      39.304  -2.024   9.359  1.00  0.00     0.078 A 
ATOM      5  C9  UNK     1      37.072  -1.537   8.566  1.00  0.00     0.134 A 
ATOM      6  C10 UNK     1      39.777  -0.876   8.723  1.00  0.00     0.096 A 
ATOM      7  C11 UNK     1      38.898  -0.062   8.011  1.00  0.00     0.084 A 
ATOM      8  C12 UNK     1      37.542  -0.388   7.929  1.00  0.00     0.118 A 
ATOM      9  C13 UNK     1      39.423   1.143   7.352  1.00  0.00     0.190 A 
ATOM     10  C14 UNK     1      41.617   0.527   8.209  1.00  0.00     0.090 A 
ATOM     11  C15 UNK     1      40.872   1.390   7.501  1.00  0.00     0.094 A 
ENDROOT
BRANCH   3  12
ATOM     12  O2  UNK     1      37.498  -3.478   9.905  1.00  0.00    -0.315 OA
BRANCH  12  13
ATOM     13  C4  UNK     1      37.549  -4.691   9.153  1.00  0.00     0.299 C 
ATOM     14  O1  UNK     1      37.571  -4.394   7.759  1.00  0.00    -0.340 OA
ATOM     15  C5  UNK     1      37.644  -5.566   6.957  1.00  0.00     0.253 C 
ATOM     16  C3  UNK     1      36.415  -6.445   7.157  1.00  0.00     0.189 C 
ATOM     17  C1  UNK     1      36.218  -6.772   8.637  1.00  0.00     0.183 C 
ATOM     18  C2  UNK     1      36.309  -5.515   9.503  1.00  0.00     0.205 C 
BRANCH  15  19
ATOM     19  C6  UNK     1      37.695  -5.027   5.564  1.00  0.00     0.172 C 
ATOM     20  O7  UNK     1      36.923  -5.328   4.666  1.00  0.00    -0.648 OA
BRANCH  19  21
ATOM     21  O6  UNK     1      38.722  -4.153   5.427  1.00  0.00    -0.774 OA
ATOM     22  H10 UNK     1      38.487  -3.400   4.844  1.00  0.00     0.167 HD
ENDBRANCH  19  21
ENDBRANCH  15  19
BRANCH  16  23
ATOM     23  O5  UNK     1      36.598  -7.660   6.432  1.00  0.00    -0.390 OA
ATOM     24  H8  UNK     1      37.372  -8.119   6.802  1.00  0.00     0.210 HD
ENDBRANCH  16  23
BRANCH  17  25
ATOM     25  O3  UNK     1      34.927  -7.364   8.791  1.00  0.00    -0.390 OA
ATOM     26  H6  UNK     1      35.049  -8.237   9.199  1.00  0.00     0.210 HD
ENDBRANCH  17  25
BRANCH  18  27
ATOM     27  O4  UNK     1      36.394  -5.891  10.877  1.00  0.00    -0.388 OA
ATOM     28  H7  UNK     1      37.173  -5.450  11.256  1.00  0.00     0.210 HD
ENDBRANCH  18  27
ENDBRANCH  12  13
ENDBRANCH   3  12
BRANCH   5  29
ATOM     29  O9  UNK     1      35.749  -1.866   8.493  1.00  0.00    -0.356 OA
ATOM     30  H12 UNK     1      35.672  -2.738   8.068  1.00  0.00     0.218 HD
ENDBRANCH   5  29
BRANCH   8  31
ATOM     31  O10 UNK     1      36.653   0.384   7.242  1.00  0.00    -0.357 OA
ATOM     32  H13 UNK     1      37.110   1.098   6.771  1.00  0.00     0.217 HD
ENDBRANCH   8  31
BRANCH  10  33
ATOM     33  C16 UNK     1      43.068   0.727   8.400  1.00  0.00    -0.002 A 
ATOM     34  C17 UNK     1      43.710   0.184   9.517  1.00  0.00     0.014 A 
ATOM     35  C19 UNK     1      45.080   0.373   9.696  1.00  0.00     0.001 A 
ATOM     36  C21 UNK     1      45.813   1.103   8.761  1.00  0.00     0.000 A 
ATOM     37  C20 UNK     1      45.175   1.647   7.645  1.00  0.00     0.001 A 
ATOM     38  C18 UNK     1      43.805   1.458   7.466  1.00  0.00     0.014 A 
ENDBRANCH  10  33
TORSDOF 10
ENDMDL
MODEL 18
REMARK VINA RESULT:      -6.4     15.574     19.139
REMARK  10 active torsions:
REMARK  status: ('A' for Active; 'I' for Inactive)
REMARK    1  A    between atoms: O2_2  and  C4_15 
REMARK    2  A    between atoms: O2_2  and  C7_18 
REMARK    3  A    between atoms: O3_3  and  C1_12 
REMARK    4  A    between atoms: O4_4  and  C2_13 
REMARK    5  A    between atoms: O5_5  and  C3_14 
REMARK    6  A    between atoms: O6_6  and  C6_17 
REMARK    7  A    between atoms: O9_9  and  C9_20 
REMARK    8  A    between atoms: O10_10  and  C12_23 
REMARK    9  A    between atoms: C5_16  and  C6_17 
REMARK   10  A    between atoms: C14_25  and  C16_27 
ROOT
ATOM      1  O8  UNK     1      44.126   0.452   9.372  1.00  0.00    -0.309 OA
ATOM      2  O11 UNK     1      42.882   3.020   6.463  1.00  0.00    -0.287 OA
ATOM      3  C7  UNK     1      40.552  -0.255   9.486  1.00  0.00     0.110 A 
ATOM      4  C8  UNK     1      41.919  -0.292   9.765  1.00  0.00     0.078 A 
ATOM      5  C9  UNK     1      40.061   0.602   8.500  1.00  0.00     0.134 A 
ATOM      6  C10 UNK     1      42.794   0.531   9.054  1.00  0.00     0.096 A 
ATOM      7  C11 UNK     1      42.300   1.386   8.070  1.00  0.00     0.084 A 
ATOM      8  C12 UNK     1      40.933   1.425   7.788  1.00  0.00     0.118 A 
ATOM      9  C13 UNK     1      43.245   2.244   7.337  1.00  0.00     0.190 A 
ATOM     10  C14 UNK     1      45.019   1.253   8.677  1.00  0.00     0.090 A 
ATOM     11  C15 UNK     1      44.667   2.119   7.714  1.00  0.00     0.094 A 
ENDROOT
BRANCH   3  12
ATOM     12  O2  UNK     1      39.706  -1.064  10.187  1.00  0.00    -0.315 OA
BRANCH  12  13
ATOM     13  C4  UNK     1      39.425  -2.342   9.616  1.00  0.00     0.299 C 
ATOM     14  O1  UNK     1      38.763  -2.176   8.364  1.00  0.00    -0.340 OA
ATOM     15  C5  UNK     1      38.476  -3.419   7.734  1.00  0.00     0.253 C 
ATOM     16  C3  UNK     1      37.523  -4.254   8.580  1.00  0.00     0.189 C 
ATOM     17  C1  UNK     1      38.073  -4.439   9.994  1.00  0.00     0.183 C 
ATOM     18  C2  UNK     1      38.532  -3.109  10.592  1.00  0.00     0.205 C 
BRANCH  15  19
ATOM     19  C6  UNK     1      37.834  -3.012   6.448  1.00  0.00     0.172 C 
ATOM     20  O7  UNK     1      36.715  -3.345   6.086  1.00  0.00    -0.648 OA
BRANCH  19  21
ATOM     21  O6  UNK     1      38.664  -2.219   5.728  1.00  0.00    -0.774 OA
ATOM     22  H10 UNK     1      39.596  -2.297   6.026  1.00  0.00     0.167 HD
ENDBRANCH  19  21
ENDBRANCH  15  19
BRANCH  16  23
ATOM     23  O5  UNK     1      37.370  -5.534   7.969  1.00  0.00    -0.390 OA
ATOM     24  H8  UNK     1      36.651  -6.003   8.425  1.00  0.00     0.210 HD
ENDBRANCH  16  23
BRANCH  17  25
ATOM     25  O3  UNK     1      37.034  -4.992  10.804  1.00  0.00    -0.390 OA
ATOM     26  H6  UNK     1      36.187  -4.803  10.368  1.00  0.00     0.210 HD
ENDBRANCH  17  25
BRANCH  18  27
ATOM     27  O4  UNK     1      39.281  -3.357  11.782  1.00  0.00    -0.388 OA
ATOM     28  H7  UNK     1      38.800  -4.026  12.298  1.00  0.00     0.210 HD
ENDBRANCH  18  27
ENDBRANCH  12  13
ENDBRANCH   3  12
BRANCH   5  29
ATOM     29  O9  UNK     1      38.722   0.631   8.235  1.00  0.00    -0.356 OA
ATOM     30  H12 UNK     1      38.251   0.861   9.054  1.00  0.00     0.218 HD
ENDBRANCH   5  29
BRANCH   8  31
ATOM     31  O10 UNK     1      40.415   2.249   6.833  1.00  0.00    -0.357 OA
ATOM     32  H13 UNK     1      40.608   3.176   7.037  1.00  0.00     0.217 HD
ENDBRANCH   8  31
BRANCH  10  33
ATOM     33  C16 UNK     1      46.425   1.092   9.101  1.00  0.00    -0.002 A 
ATOM     34  C17 UNK     1      47.458   1.620   8.323  1.00  0.00     0.014 A 
ATOM     35  C19 UNK     1      48.785   1.469   8.724  1.00  0.00     0.001 A 
ATOM     36  C21 UNK     1      49.084   0.790   9.905  1.00  0.00     0.000 A 
ATOM     37  C20 UNK     1      48.055   0.261  10.685  1.00  0.00     0.001 A 
ATOM     38  C18 UNK     1      46.728   0.412  10.283  1.00  0.00     0.014 A 
ENDBRANCH  10  33
TORSDOF 10
ENDMDL
