MODEL 1
REMARK VINA RESULT:      -7.0      0.000      0.000
REMARK  10 active torsions:
REMARK  status: ('A' for Active; 'I' for Inactive)
REMARK    1  A    between atoms: O2_2  and  C4_15 
REMARK    2  A    between atoms: O2_2  and  C7_18 
REMARK    3  A    between atoms: O3_3  and  C1_12 
REMARK    4  A    between atoms: O4_4  and  C2_13 
REMARK    5  A    between atoms: O5_5  and  C3_14 
REMARK    6  A    between atoms: O6_6  and  C6_17 
REMARK    7  A    between atoms: O9_9  and  C9_20 
REMARK    8  A    between atoms: O10_10  and  C12_23 
REMARK    9  A    between atoms: C5_16  and  C6_17 
REMARK   10  A    between atoms: C14_25  and  C16_27 
ROOT
ATOM      1  O8  UNK     1      45.114  12.906 -10.751  1.00  0.00    -0.309 OA
ATOM      2  O11 UNK     1      42.659   9.659 -10.917  1.00  0.00    -0.287 OA
ATOM      3  C7  UNK     1      47.021  10.649  -8.620  1.00  0.00     0.110 A 
ATOM      4  C8  UNK     1      46.632  11.781  -9.336  1.00  0.00     0.078 A 
ATOM      5  C9  UNK     1      46.226   9.502  -8.635  1.00  0.00     0.134 A 
ATOM      6  C10 UNK     1      45.444  11.764 -10.069  1.00  0.00     0.096 A 
ATOM      7  C11 UNK     1      44.652  10.618 -10.082  1.00  0.00     0.084 A 
ATOM      8  C12 UNK     1      45.038   9.482  -9.367  1.00  0.00     0.118 A 
ATOM      9  C13 UNK     1      43.404  10.628 -10.862  1.00  0.00     0.190 A 
ATOM     10  C14 UNK     1      43.943  12.916 -11.494  1.00  0.00     0.090 A 
ATOM     11  C15 UNK     1      43.095  11.879 -11.582  1.00  0.00     0.094 A 
ENDROOT
BRANCH   3  12
ATOM     12  O2  UNK     1      48.184  10.676  -7.907  1.00  0.00    -0.315 OA
BRANCH  12  13
ATOM     13  C4  UNK     1      48.099  11.152  -6.563  1.00  0.00     0.299 C 
ATOM     14  O1  UNK     1      48.567  12.497  -6.499  1.00  0.00    -0.340 OA
ATOM     15  C5  UNK     1      48.486  13.036  -5.185  1.00  0.00     0.253 C 
ATOM     16  C3  UNK     1      49.373  12.260  -4.219  1.00  0.00     0.189 C 
ATOM     17  C1  UNK     1      49.036  10.770  -4.252  1.00  0.00     0.183 C 
ATOM     18  C2  UNK     1      48.964  10.246  -5.686  1.00  0.00     0.205 C 
BRANCH  15  19
ATOM     19  C6  UNK     1      48.979  14.436  -5.357  1.00  0.00     0.172 C 
ATOM     20  O7  UNK     1      48.680  15.379  -4.639  1.00  0.00    -0.648 OA
BRANCH  19  21
ATOM     21  O6  UNK     1      49.806  14.524  -6.427  1.00  0.00    -0.774 OA
ATOM     22  H10 UNK     1      50.669  14.088  -6.260  1.00  0.00     0.167 HD
ENDBRANCH  19  21
ENDBRANCH  15  19
BRANCH  16  23
ATOM     23  O5  UNK     1      49.158  12.758  -2.900  1.00  0.00    -0.390 OA
ATOM     24  H8  UNK     1      49.564  13.639  -2.839  1.00  0.00     0.210 HD
ENDBRANCH  16  23
BRANCH  17  25
ATOM     25  O3  UNK     1      50.058  10.069  -3.540  1.00  0.00    -0.390 OA
ATOM     26  H6  UNK     1      49.623   9.437  -2.944  1.00  0.00     0.210 HD
ENDBRANCH  17  25
BRANCH  18  27
ATOM     27  O4  UNK     1      48.386   8.940  -5.685  1.00  0.00    -0.388 OA
ATOM     28  H7  UNK     1      48.936   8.374  -6.251  1.00  0.00     0.210 HD
ENDBRANCH  18  27
ENDBRANCH  12  13
ENDBRANCH   3  12
BRANCH   5  29
ATOM     29  O9  UNK     1      46.614   8.399  -7.932  1.00  0.00    -0.356 OA
ATOM     30  H12 UNK     1      47.571   8.274  -8.057  1.00  0.00     0.218 HD
ENDBRANCH   5  29
BRANCH   8  31
ATOM     31  O10 UNK     1      44.288   8.344  -9.358  1.00  0.00    -0.357 OA
ATOM     32  H13 UNK     1      43.661   8.351  -8.619  1.00  0.00     0.217 HD
ENDBRANCH   8  31
BRANCH  10  33
ATOM     33  C16 UNK     1      43.681  14.195 -12.185  1.00  0.00    -0.002 A 
ATOM     34  C17 UNK     1      44.292  15.371 -11.740  1.00  0.00     0.014 A 
ATOM     35  C19 UNK     1      44.045  16.578 -12.393  1.00  0.00     0.001 A 
ATOM     36  C21 UNK     1      43.189  16.615 -13.493  1.00  0.00     0.000 A 
ATOM     37  C20 UNK     1      42.577  15.443 -13.940  1.00  0.00     0.001 A 
ATOM     38  C18 UNK     1      42.824  14.236 -13.287  1.00  0.00     0.014 A 
ENDBRANCH  10  33
TORSDOF 10
ENDMDL
MODEL 2
REMARK VINA RESULT:      -6.5      2.250      4.297
REMARK  10 active torsions:
REMARK  status: ('A' for Active; 'I' for Inactive)
REMARK    1  A    between atoms: O2_2  and  C4_15 
REMARK    2  A    between atoms: O2_2  and  C7_18 
REMARK    3  A    between atoms: O3_3  and  C1_12 
REMARK    4  A    between atoms: O4_4  and  C2_13 
REMARK    5  A    between atoms: O5_5  and  C3_14 
REMARK    6  A    between atoms: O6_6  and  C6_17 
REMARK    7  A    between atoms: O9_9  and  C9_20 
REMARK    8  A    between atoms: O10_10  and  C12_23 
REMARK    9  A    between atoms: C5_16  and  C6_17 
REMARK   10  A    between atoms: C14_25  and  C16_27 
ROOT
ATOM      1  O8  UNK     1      44.789   9.703  -9.356  1.00  0.00    -0.309 OA
ATOM      2  O11 UNK     1      44.940  12.416 -12.392  1.00  0.00    -0.287 OA
ATOM      3  C7  UNK     1      48.111  11.064  -8.730  1.00  0.00     0.110 A 
ATOM      4  C8  UNK     1      46.950  10.299  -8.614  1.00  0.00     0.078 A 
ATOM      5  C9  UNK     1      48.226  12.013  -9.748  1.00  0.00     0.134 A 
ATOM      6  C10 UNK     1      45.903  10.485  -9.519  1.00  0.00     0.096 A 
ATOM      7  C11 UNK     1      46.022  11.432 -10.535  1.00  0.00     0.084 A 
ATOM      8  C12 UNK     1      47.182  12.200 -10.654  1.00  0.00     0.118 A 
ATOM      9  C13 UNK     1      44.904  11.605 -11.476  1.00  0.00     0.190 A 
ATOM     10  C14 UNK     1      43.730   9.870 -10.236  1.00  0.00     0.090 A 
ATOM     11  C15 UNK     1      43.725  10.743 -11.255  1.00  0.00     0.094 A 
ENDROOT
BRANCH   3  12
ATOM     12  O2  UNK     1      49.127  10.876  -7.840  1.00  0.00    -0.315 OA
BRANCH  12  13
ATOM     13  C4  UNK     1      48.821  11.097  -6.463  1.00  0.00     0.299 C 
ATOM     14  O1  UNK     1      49.088  12.456  -6.124  1.00  0.00    -0.340 OA
ATOM     15  C5  UNK     1      48.780  12.745  -4.765  1.00  0.00     0.253 C 
ATOM     16  C3  UNK     1      49.646  11.920  -3.820  1.00  0.00     0.189 C 
ATOM     17  C1  UNK     1      49.524  10.429  -4.134  1.00  0.00     0.183 C 
ATOM     18  C2  UNK     1      49.693  10.159  -5.629  1.00  0.00     0.205 C 
BRANCH  15  19
ATOM     19  C6  UNK     1      49.092  14.201  -4.644  1.00  0.00     0.172 C 
ATOM     20  O7  UNK     1      49.764  14.843  -5.437  1.00  0.00    -0.648 OA
BRANCH  19  21
ATOM     21  O6  UNK     1      48.529  14.720  -3.525  1.00  0.00    -0.774 OA
ATOM     22  H10 UNK     1      47.813  14.147  -3.175  1.00  0.00     0.167 HD
ENDBRANCH  19  21
ENDBRANCH  15  19
BRANCH  16  23
ATOM     23  O5  UNK     1      49.211  12.152  -2.481  1.00  0.00    -0.390 OA
ATOM     24  H8  UNK     1      48.724  12.994  -2.463  1.00  0.00     0.210 HD
ENDBRANCH  16  23
BRANCH  17  25
ATOM     25  O3  UNK     1      50.541   9.739  -3.407  1.00  0.00    -0.390 OA
ATOM     26  H6  UNK     1      50.127   9.343  -2.622  1.00  0.00     0.210 HD
ENDBRANCH  17  25
BRANCH  18  27
ATOM     27  O4  UNK     1      49.304   8.815  -5.914  1.00  0.00    -0.388 OA
ATOM     28  H7  UNK     1      48.382   8.834  -6.220  1.00  0.00     0.210 HD
ENDBRANCH  18  27
ENDBRANCH  12  13
ENDBRANCH   3  12
BRANCH   5  29
ATOM     29  O9  UNK     1      49.365  12.757  -9.854  1.00  0.00    -0.356 OA
ATOM     30  H12 UNK     1      50.116  12.153  -9.985  1.00  0.00     0.218 HD
ENDBRANCH   5  29
BRANCH   8  31
ATOM     31  O10 UNK     1      47.332  13.136 -11.634  1.00  0.00    -0.357 OA
ATOM     32  H13 UNK     1      47.873  13.877 -11.322  1.00  0.00     0.217 HD
ENDBRANCH   8  31
BRANCH  10  33
ATOM     33  C16 UNK     1      42.584   8.977  -9.972  1.00  0.00    -0.002 A 
ATOM     34  C17 UNK     1      41.296   9.505  -9.851  1.00  0.00     0.014 A 
ATOM     35  C19 UNK     1      40.213   8.661  -9.604  1.00  0.00     0.001 A 
ATOM     36  C21 UNK     1      40.414   7.286  -9.477  1.00  0.00     0.000 A 
ATOM     37  C20 UNK     1      41.699   6.756  -9.598  1.00  0.00     0.001 A 
ATOM     38  C18 UNK     1      42.781   7.600  -9.845  1.00  0.00     0.014 A 
ENDBRANCH  10  33
TORSDOF 10
ENDMDL
MODEL 3
REMARK VINA RESULT:      -6.3      1.277      1.826
REMARK  10 active torsions:
REMARK  status: ('A' for Active; 'I' for Inactive)
REMARK    1  A    between atoms: O2_2  and  C4_15 
REMARK    2  A    between atoms: O2_2  and  C7_18 
REMARK    3  A    between atoms: O3_3  and  C1_12 
REMARK    4  A    between atoms: O4_4  and  C2_13 
REMARK    5  A    between atoms: O5_5  and  C3_14 
REMARK    6  A    between atoms: O6_6  and  C6_17 
REMARK    7  A    between atoms: O9_9  and  C9_20 
REMARK    8  A    between atoms: O10_10  and  C12_23 
REMARK    9  A    between atoms: C5_16  and  C6_17 
REMARK   10  A    between atoms: C14_25  and  C16_27 
ROOT
ATOM      1  O8  UNK     1      44.645  11.547 -10.419  1.00  0.00    -0.309 OA
ATOM      2  O11 UNK     1      43.895   7.637 -11.282  1.00  0.00    -0.287 OA
ATOM      3  C7  UNK     1      47.512  10.041  -8.748  1.00  0.00     0.110 A 
ATOM      4  C8  UNK     1      46.607  10.987  -9.229  1.00  0.00     0.078 A 
ATOM      5  C9  UNK     1      47.314   8.685  -9.010  1.00  0.00     0.134 A 
ATOM      6  C10 UNK     1      45.501  10.573  -9.974  1.00  0.00     0.096 A 
ATOM      7  C11 UNK     1      45.305   9.217 -10.233  1.00  0.00     0.084 A 
ATOM      8  C12 UNK     1      46.210   8.268  -9.753  1.00  0.00     0.118 A 
ATOM      9  C13 UNK     1      44.131   8.808 -11.018  1.00  0.00     0.190 A 
ATOM     10  C14 UNK     1      43.542  11.166 -11.167  1.00  0.00     0.090 A 
ATOM     11  C15 UNK     1      43.242   9.895 -11.478  1.00  0.00     0.094 A 
ENDROOT
BRANCH   3  12
ATOM     12  O2  UNK     1      48.590  10.457  -8.022  1.00  0.00    -0.315 OA
BRANCH  12  13
ATOM     13  C4  UNK     1      48.319  11.002  -6.730  1.00  0.00     0.299 C 
ATOM     14  O1  UNK     1      48.813  12.337  -6.658  1.00  0.00    -0.340 OA
ATOM     15  C5  UNK     1      48.552  12.943  -5.397  1.00  0.00     0.253 C 
ATOM     16  C3  UNK     1      49.259  12.196  -4.273  1.00  0.00     0.189 C 
ATOM     17  C1  UNK     1      48.884  10.714  -4.288  1.00  0.00     0.183 C 
ATOM     18  C2  UNK     1      49.012  10.120  -5.691  1.00  0.00     0.205 C 
BRANCH  15  19
ATOM     19  C6  UNK     1      49.108  14.321  -5.557  1.00  0.00     0.172 C 
ATOM     20  O7  UNK     1      48.812  15.282  -4.863  1.00  0.00    -0.648 OA
BRANCH  19  21
ATOM     21  O6  UNK     1      49.991  14.364  -6.585  1.00  0.00    -0.774 OA
ATOM     22  H10 UNK     1      49.617  13.979  -7.406  1.00  0.00     0.167 HD
ENDBRANCH  19  21
ENDBRANCH  15  19
BRANCH  16  23
ATOM     23  O5  UNK     1      48.863  12.764  -3.026  1.00  0.00    -0.390 OA
ATOM     24  H8  UNK     1      47.891  12.779  -2.997  1.00  0.00     0.210 HD
ENDBRANCH  16  23
BRANCH  17  25
ATOM     25  O3  UNK     1      49.764  10.026  -3.398  1.00  0.00    -0.390 OA
ATOM     26  H6  UNK     1      50.291   9.403  -3.925  1.00  0.00     0.210 HD
ENDBRANCH  17  25
BRANCH  18  27
ATOM     27  O4  UNK     1      48.400   8.831  -5.718  1.00  0.00    -0.388 OA
ATOM     28  H7  UNK     1      48.374   8.498  -4.806  1.00  0.00     0.210 HD
ENDBRANCH  18  27
ENDBRANCH  12  13
ENDBRANCH   3  12
BRANCH   5  29
ATOM     29  O9  UNK     1      48.205   7.766  -8.535  1.00  0.00    -0.356 OA
ATOM     30  H12 UNK     1      47.802   7.309  -7.776  1.00  0.00     0.218 HD
ENDBRANCH   5  29
BRANCH   8  31
ATOM     31  O10 UNK     1      46.051   6.934  -9.988  1.00  0.00    -0.357 OA
ATOM     32  H13 UNK     1      46.367   6.412  -9.235  1.00  0.00     0.217 HD
ENDBRANCH   8  31
BRANCH  10  33
ATOM     33  C16 UNK     1      42.686  12.293 -11.591  1.00  0.00    -0.002 A 
ATOM     34  C17 UNK     1      41.428  12.047 -12.148  1.00  0.00     0.014 A 
ATOM     35  C19 UNK     1      40.619  13.111 -12.547  1.00  0.00     0.001 A 
ATOM     36  C21 UNK     1      41.065  14.423 -12.391  1.00  0.00     0.000 A 
ATOM     37  C20 UNK     1      42.320  14.672 -11.835  1.00  0.00     0.001 A 
ATOM     38  C18 UNK     1      43.129  13.608 -11.436  1.00  0.00     0.014 A 
ENDBRANCH  10  33
TORSDOF 10
ENDMDL
MODEL 4
REMARK VINA RESULT:      -6.2      1.284      1.782
REMARK  10 active torsions:
REMARK  status: ('A' for Active; 'I' for Inactive)
REMARK    1  A    between atoms: O2_2  and  C4_15 
REMARK    2  A    between atoms: O2_2  and  C7_18 
REMARK    3  A    between atoms: O3_3  and  C1_12 
REMARK    4  A    between atoms: O4_4  and  C2_13 
REMARK    5  A    between atoms: O5_5  and  C3_14 
REMARK    6  A    between atoms: O6_6  and  C6_17 
REMARK    7  A    between atoms: O9_9  and  C9_20 
REMARK    8  A    between atoms: O10_10  and  C12_23 
REMARK    9  A    between atoms: C5_16  and  C6_17 
REMARK   10  A    between atoms: C14_25  and  C16_27 
ROOT
ATOM      1  O8  UNK     1      45.218  12.899 -10.635  1.00  0.00    -0.309 OA
ATOM      2  O11 UNK     1      42.832   9.606 -10.886  1.00  0.00    -0.287 OA
ATOM      3  C7  UNK     1      47.127  10.656  -8.490  1.00  0.00     0.110 A 
ATOM      4  C8  UNK     1      46.730  11.788  -9.201  1.00  0.00     0.078 A 
ATOM      5  C9  UNK     1      46.356   9.494  -8.535  1.00  0.00     0.134 A 
ATOM      6  C10 UNK     1      45.558  11.756  -9.959  1.00  0.00     0.096 A 
ATOM      7  C11 UNK     1      44.789  10.595 -10.001  1.00  0.00     0.084 A 
ATOM      8  C12 UNK     1      45.183   9.459  -9.290  1.00  0.00     0.118 A 
ATOM      9  C13 UNK     1      43.557  10.589 -10.805  1.00  0.00     0.190 A 
ATOM     10  C14 UNK     1      44.062  12.894 -11.402  1.00  0.00     0.090 A 
ATOM     11  C15 UNK     1      43.237  11.842 -11.518  1.00  0.00     0.094 A 
ENDROOT
BRANCH   3  12
ATOM     12  O2  UNK     1      48.275  10.698  -7.754  1.00  0.00    -0.315 OA
BRANCH  12  13
ATOM     13  C4  UNK     1      48.608  11.953  -7.160  1.00  0.00     0.299 C 
ATOM     14  O1  UNK     1      49.934  12.323  -7.531  1.00  0.00    -0.340 OA
ATOM     15  C5  UNK     1      50.317  13.581  -6.986  1.00  0.00     0.253 C 
ATOM     16  C3  UNK     1      50.327  13.538  -5.463  1.00  0.00     0.189 C 
ATOM     17  C1  UNK     1      48.976  13.065  -4.925  1.00  0.00     0.183 C 
ATOM     18  C2  UNK     1      48.502  11.801  -5.643  1.00  0.00     0.205 C 
BRANCH  15  19
ATOM     19  C6  UNK     1      51.696  13.783  -7.525  1.00  0.00     0.172 C 
ATOM     20  O7  UNK     1      52.442  12.890  -7.897  1.00  0.00    -0.648 OA
BRANCH  19  21
ATOM     21  O6  UNK     1      52.015  15.100  -7.542  1.00  0.00    -0.774 OA
ATOM     22  H10 UNK     1      52.176  15.451  -6.640  1.00  0.00     0.167 HD
ENDBRANCH  19  21
ENDBRANCH  15  19
BRANCH  16  23
ATOM     23  O5  UNK     1      50.591  14.850  -4.970  1.00  0.00    -0.390 OA
ATOM     24  H8  UNK     1      51.200  15.288  -5.588  1.00  0.00     0.210 HD
ENDBRANCH  16  23
BRANCH  17  25
ATOM     25  O3  UNK     1      49.126  12.794  -3.531  1.00  0.00    -0.390 OA
ATOM     26  H6  UNK     1      49.924  13.253  -3.224  1.00  0.00     0.210 HD
ENDBRANCH  17  25
BRANCH  18  27
ATOM     27  O4  UNK     1      47.136  11.552  -5.312  1.00  0.00    -0.388 OA
ATOM     28  H7  UNK     1      46.745  12.393  -5.023  1.00  0.00     0.210 HD
ENDBRANCH  18  27
ENDBRANCH  12  13
ENDBRANCH   3  12
BRANCH   5  29
ATOM     29  O9  UNK     1      46.752   8.391  -7.836  1.00  0.00    -0.356 OA
ATOM     30  H12 UNK     1      46.019   7.750  -7.831  1.00  0.00     0.218 HD
ENDBRANCH   5  29
BRANCH   8  31
ATOM     31  O10 UNK     1      44.457   8.306  -9.309  1.00  0.00    -0.357 OA
ATOM     32  H13 UNK     1      44.188   8.054  -8.413  1.00  0.00     0.217 HD
ENDBRANCH   8  31
BRANCH  10  33
ATOM     33  C16 UNK     1      43.789  14.176 -12.083  1.00  0.00    -0.002 A 
ATOM     34  C17 UNK     1      44.509  15.322 -11.737  1.00  0.00     0.014 A 
ATOM     35  C19 UNK     1      44.251  16.532 -12.382  1.00  0.00     0.001 A 
ATOM     36  C21 UNK     1      43.274  16.600 -13.374  1.00  0.00     0.000 A 
ATOM     37  C20 UNK     1      42.553  15.458 -13.722  1.00  0.00     0.001 A 
ATOM     38  C18 UNK     1      42.811  14.248 -13.078  1.00  0.00     0.014 A 
ENDBRANCH  10  33
TORSDOF 10
ENDMDL
MODEL 5
REMARK VINA RESULT:      -6.2      3.053      4.236
REMARK  10 active torsions:
REMARK  status: ('A' for Active; 'I' for Inactive)
REMARK    1  A    between atoms: O2_2  and  C4_15 
REMARK    2  A    between atoms: O2_2  and  C7_18 
REMARK    3  A    between atoms: O3_3  and  C1_12 
REMARK    4  A    between atoms: O4_4  and  C2_13 
REMARK    5  A    between atoms: O5_5  and  C3_14 
REMARK    6  A    between atoms: O6_6  and  C6_17 
REMARK    7  A    between atoms: O9_9  and  C9_20 
REMARK    8  A    between atoms: O10_10  and  C12_23 
REMARK    9  A    between atoms: C5_16  and  C6_17 
REMARK   10  A    between atoms: C14_25  and  C16_27 
ROOT
ATOM      1  O8  UNK     1      44.876   9.259  -9.571  1.00  0.00    -0.309 OA
ATOM      2  O11 UNK     1      46.014  10.199 -13.368  1.00  0.00    -0.287 OA
ATOM      3  C7  UNK     1      48.392   9.979  -8.943  1.00  0.00     0.110 A 
ATOM      4  C8  UNK     1      47.057   9.628  -8.745  1.00  0.00     0.078 A 
ATOM      5  C9  UNK     1      48.847  10.314 -10.219  1.00  0.00     0.134 A 
ATOM      6  C10 UNK     1      46.176   9.613  -9.827  1.00  0.00     0.096 A 
ATOM      7  C11 UNK     1      46.632   9.947 -11.101  1.00  0.00     0.084 A 
ATOM      8  C12 UNK     1      47.969  10.299 -11.303  1.00  0.00     0.118 A 
ATOM      9  C13 UNK     1      45.683   9.920 -12.224  1.00  0.00     0.190 A 
ATOM     10  C14 UNK     1      43.976   9.241 -10.626  1.00  0.00     0.090 A 
ATOM     11  C15 UNK     1      44.295   9.537 -11.896  1.00  0.00     0.094 A 
ENDROOT
BRANCH   3  12
ATOM     12  O2  UNK     1      49.245   9.992  -7.878  1.00  0.00    -0.315 OA
BRANCH  12  13
ATOM     13  C4  UNK     1      48.856  10.786  -6.757  1.00  0.00     0.299 C 
ATOM     14  O1  UNK     1      49.564  12.023  -6.774  1.00  0.00    -0.340 OA
ATOM     15  C5  UNK     1      49.201  12.869  -5.689  1.00  0.00     0.253 C 
ATOM     16  C3  UNK     1      49.554  12.228  -4.352  1.00  0.00     0.189 C 
ATOM     17  C1  UNK     1      48.925  10.839  -4.235  1.00  0.00     0.183 C 
ATOM     18  C2  UNK     1      49.186  10.001  -5.486  1.00  0.00     0.205 C 
BRANCH  15  19
ATOM     19  C6  UNK     1      50.017  14.099  -5.924  1.00  0.00     0.172 C 
ATOM     20  O7  UNK     1      50.996  14.162  -6.654  1.00  0.00    -0.648 OA
BRANCH  19  21
ATOM     21  O6  UNK     1      49.526  15.142  -5.213  1.00  0.00    -0.774 OA
ATOM     22  H10 UNK     1      49.787  16.005  -5.600  1.00  0.00     0.167 HD
ENDBRANCH  19  21
ENDBRANCH  15  19
BRANCH  16  23
ATOM     23  O5  UNK     1      49.055  13.055  -3.302  1.00  0.00    -0.390 OA
ATOM     24  H8  UNK     1      49.811  13.513  -2.894  1.00  0.00     0.210 HD
ENDBRANCH  16  23
BRANCH  17  25
ATOM     25  O3  UNK     1      49.497  10.190  -3.098  1.00  0.00    -0.390 OA
ATOM     26  H6  UNK     1      48.996  10.470  -2.314  1.00  0.00     0.210 HD
ENDBRANCH  17  25
BRANCH  18  27
ATOM     27  O4  UNK     1      48.365   8.834  -5.455  1.00  0.00    -0.388 OA
ATOM     28  H7  UNK     1      47.458   9.117  -5.252  1.00  0.00     0.210 HD
ENDBRANCH  18  27
ENDBRANCH  12  13
ENDBRANCH   3  12
BRANCH   5  29
ATOM     29  O9  UNK     1      50.155  10.656 -10.404  1.00  0.00    -0.356 OA
ATOM     30  H12 UNK     1      50.309  11.521  -9.985  1.00  0.00     0.218 HD
ENDBRANCH   5  29
BRANCH   8  31
ATOM     31  O10 UNK     1      48.450  10.632 -12.534  1.00  0.00    -0.357 OA
ATOM     32  H13 UNK     1      48.465   9.859 -13.118  1.00  0.00     0.217 HD
ENDBRANCH   8  31
BRANCH  10  33
ATOM     33  C16 UNK     1      42.607   8.843 -10.240  1.00  0.00    -0.002 A 
ATOM     34  C17 UNK     1      42.355   7.544  -9.791  1.00  0.00     0.014 A 
ATOM     35  C19 UNK     1      41.062   7.168  -9.426  1.00  0.00     0.001 A 
ATOM     36  C21 UNK     1      40.018   8.088  -9.508  1.00  0.00     0.000 A 
ATOM     37  C20 UNK     1      40.266   9.386  -9.957  1.00  0.00     0.001 A 
ATOM     38  C18 UNK     1      41.559   9.762 -10.322  1.00  0.00     0.014 A 
ENDBRANCH  10  33
TORSDOF 10
ENDMDL
MODEL 6
REMARK VINA RESULT:      -6.1      3.330      4.371
REMARK  10 active torsions:
REMARK  status: ('A' for Active; 'I' for Inactive)
REMARK    1  A    between atoms: O2_2  and  C4_15 
REMARK    2  A    between atoms: O2_2  and  C7_18 
REMARK    3  A    between atoms: O3_3  and  C1_12 
REMARK    4  A    between atoms: O4_4  and  C2_13 
REMARK    5  A    between atoms: O5_5  and  C3_14 
REMARK    6  A    between atoms: O6_6  and  C6_17 
REMARK    7  A    between atoms: O9_9  and  C9_20 
REMARK    8  A    between atoms: O10_10  and  C12_23 
REMARK    9  A    between atoms: C5_16  and  C6_17 
REMARK   10  A    between atoms: C14_25  and  C16_27 
ROOT
ATOM      1  O8  UNK     1      44.834   9.112  -9.306  1.00  0.00    -0.309 OA
ATOM      2  O11 UNK     1      46.602   5.967 -11.200  1.00  0.00    -0.287 OA
ATOM      3  C7  UNK     1      48.316   9.906  -8.584  1.00  0.00     0.110 A 
ATOM      4  C8  UNK     1      46.924   9.976  -8.626  1.00  0.00     0.078 A 
ATOM      5  C9  UNK     1      48.984   8.855  -9.214  1.00  0.00     0.134 A 
ATOM      6  C10 UNK     1      46.200   8.991  -9.300  1.00  0.00     0.096 A 
ATOM      7  C11 UNK     1      46.869   7.942  -9.928  1.00  0.00     0.084 A 
ATOM      8  C12 UNK     1      48.264   7.869  -9.888  1.00  0.00     0.118 A 
ATOM      9  C13 UNK     1      46.081   6.917 -10.629  1.00  0.00     0.190 A 
ATOM     10  C14 UNK     1      44.089   8.152  -9.974  1.00  0.00     0.090 A 
ATOM     11  C15 UNK     1      44.615   7.094 -10.611  1.00  0.00     0.094 A 
ENDROOT
BRANCH   3  12
ATOM     12  O2  UNK     1      49.014  10.874  -7.923  1.00  0.00    -0.315 OA
BRANCH  12  13
ATOM     13  C4  UNK     1      48.750  11.012  -6.527  1.00  0.00     0.299 C 
ATOM     14  O1  UNK     1      48.653  12.394  -6.190  1.00  0.00    -0.340 OA
ATOM     15  C5  UNK     1      48.367  12.596  -4.811  1.00  0.00     0.253 C 
ATOM     16  C3  UNK     1      49.487  12.050  -3.934  1.00  0.00     0.189 C 
ATOM     17  C1  UNK     1      49.760  10.581  -4.256  1.00  0.00     0.183 C 
ATOM     18  C2  UNK     1      49.899  10.356  -5.761  1.00  0.00     0.205 C 
BRANCH  15  19
ATOM     19  C6  UNK     1      48.273  14.083  -4.694  1.00  0.00     0.172 C 
ATOM     20  O7  UNK     1      47.811  14.826  -5.547  1.00  0.00    -0.648 OA
BRANCH  19  21
ATOM     21  O6  UNK     1      48.776  14.502  -3.507  1.00  0.00    -0.774 OA
ATOM     22  H10 UNK     1      49.378  15.269  -3.615  1.00  0.00     0.167 HD
ENDBRANCH  19  21
ENDBRANCH  15  19
BRANCH  16  23
ATOM     23  O5  UNK     1      49.094  12.162  -2.567  1.00  0.00    -0.390 OA
ATOM     24  H8  UNK     1      48.331  11.576  -2.423  1.00  0.00     0.210 HD
ENDBRANCH  16  23
BRANCH  17  25
ATOM     25  O3  UNK     1      50.974  10.203  -3.604  1.00  0.00    -0.390 OA
ATOM     26  H6  UNK     1      51.686  10.759  -3.960  1.00  0.00     0.210 HD
ENDBRANCH  17  25
BRANCH  18  27
ATOM     27  O4  UNK     1      49.878   8.955  -6.036  1.00  0.00    -0.388 OA
ATOM     28  H7  UNK     1      49.376   8.824  -6.857  1.00  0.00     0.210 HD
ENDBRANCH  18  27
ENDBRANCH  12  13
ENDBRANCH   3  12
BRANCH   5  29
ATOM     29  O9  UNK     1      50.347   8.794  -9.168  1.00  0.00    -0.356 OA
ATOM     30  H12 UNK     1      50.653   8.199  -9.875  1.00  0.00     0.218 HD
ENDBRANCH   5  29
BRANCH   8  31
ATOM     31  O10 UNK     1      48.952   6.858 -10.491  1.00  0.00    -0.357 OA
ATOM     32  H13 UNK     1      48.346   6.173 -10.811  1.00  0.00     0.217 HD
ENDBRANCH   8  31
BRANCH  10  33
ATOM     33  C16 UNK     1      42.630   8.376  -9.915  1.00  0.00    -0.002 A 
ATOM     34  C17 UNK     1      41.783   7.365  -9.451  1.00  0.00     0.014 A 
ATOM     35  C19 UNK     1      40.406   7.577  -9.394  1.00  0.00     0.001 A 
ATOM     36  C21 UNK     1      39.870   8.800  -9.799  1.00  0.00     0.000 A 
ATOM     37  C20 UNK     1      40.712   9.811 -10.262  1.00  0.00     0.001 A 
ATOM     38  C18 UNK     1      42.090   9.599 -10.319  1.00  0.00     0.014 A 
ENDBRANCH  10  33
TORSDOF 10
ENDMDL
MODEL 7
REMARK VINA RESULT:      -6.1      3.206      5.462
REMARK  10 active torsions:
REMARK  status: ('A' for Active; 'I' for Inactive)
REMARK    1  A    between atoms: O2_2  and  C4_15 
REMARK    2  A    between atoms: O2_2  and  C7_18 
REMARK    3  A    between atoms: O3_3  and  C1_12 
REMARK    4  A    between atoms: O4_4  and  C2_13 
REMARK    5  A    between atoms: O5_5  and  C3_14 
REMARK    6  A    between atoms: O6_6  and  C6_17 
REMARK    7  A    between atoms: O9_9  and  C9_20 
REMARK    8  A    between atoms: O10_10  and  C12_23 
REMARK    9  A    between atoms: C5_16  and  C6_17 
REMARK   10  A    between atoms: C14_25  and  C16_27 
ROOT
ATOM      1  O8  UNK     1      46.008   7.338 -10.103  1.00  0.00    -0.309 OA
ATOM      2  O11 UNK     1      42.544   9.482 -10.026  1.00  0.00    -0.287 OA
ATOM      3  C7  UNK     1      47.178  10.232  -8.223  1.00  0.00     0.110 A 
ATOM      4  C8  UNK     1      47.153   9.001  -8.879  1.00  0.00     0.078 A 
ATOM      5  C9  UNK     1      46.025  11.015  -8.159  1.00  0.00     0.134 A 
ATOM      6  C10 UNK     1      45.971   8.555  -9.472  1.00  0.00     0.096 A 
ATOM      7  C11 UNK     1      44.821   9.339  -9.407  1.00  0.00     0.084 A 
ATOM      8  C12 UNK     1      44.842  10.572  -8.751  1.00  0.00     0.118 A 
ATOM      9  C13 UNK     1      43.589   8.845 -10.042  1.00  0.00     0.190 A 
ATOM     10  C14 UNK     1      44.846   6.866 -10.695  1.00  0.00     0.090 A 
ATOM     11  C15 UNK     1      43.679   7.529 -10.705  1.00  0.00     0.094 A 
ENDROOT
BRANCH   3  12
ATOM     12  O2  UNK     1      48.338  10.659  -7.647  1.00  0.00    -0.315 OA
BRANCH  12  13
ATOM     13  C4  UNK     1      48.286  10.961  -6.252  1.00  0.00     0.299 C 
ATOM     14  O1  UNK     1      48.613  12.333  -6.045  1.00  0.00    -0.340 OA
ATOM     15  C5  UNK     1      48.555  12.702  -4.671  1.00  0.00     0.253 C 
ATOM     16  C3  UNK     1      49.576  11.921  -3.852  1.00  0.00     0.189 C 
ATOM     17  C1  UNK     1      49.395  10.416  -4.052  1.00  0.00     0.183 C 
ATOM     18  C2  UNK     1      49.292  10.060  -5.536  1.00  0.00     0.205 C 
BRANCH  15  19
ATOM     19  C6  UNK     1      48.888  14.158  -4.692  1.00  0.00     0.172 C 
ATOM     20  O7  UNK     1      49.378  14.753  -5.641  1.00  0.00    -0.648 OA
BRANCH  19  21
ATOM     21  O6  UNK     1      48.574  14.738  -3.508  1.00  0.00    -0.774 OA
ATOM     22  H10 UNK     1      49.052  14.322  -2.758  1.00  0.00     0.167 HD
ENDBRANCH  19  21
ENDBRANCH  15  19
BRANCH  16  23
ATOM     23  O5  UNK     1      49.390  12.233  -2.472  1.00  0.00    -0.390 OA
ATOM     24  H8  UNK     1      48.934  13.090  -2.416  1.00  0.00     0.210 HD
ENDBRANCH  16  23
BRANCH  17  25
ATOM     25  O3  UNK     1      50.525   9.755  -3.482  1.00  0.00    -0.390 OA
ATOM     26  H6  UNK     1      51.065   9.408  -4.211  1.00  0.00     0.210 HD
ENDBRANCH  17  25
BRANCH  18  27
ATOM     27  O4  UNK     1      48.854   8.707  -5.669  1.00  0.00    -0.388 OA
ATOM     28  H7  UNK     1      49.212   8.363  -6.504  1.00  0.00     0.210 HD
ENDBRANCH  18  27
ENDBRANCH  12  13
ENDBRANCH   3  12
BRANCH   5  29
ATOM     29  O9  UNK     1      46.058  12.218  -7.515  1.00  0.00    -0.356 OA
ATOM     30  H12 UNK     1      45.216  12.337  -7.041  1.00  0.00     0.218 HD
ENDBRANCH   5  29
BRANCH   8  31
ATOM     31  O10 UNK     1      43.736  11.365  -8.667  1.00  0.00    -0.357 OA
ATOM     32  H13 UNK     1      43.714  11.836  -7.820  1.00  0.00     0.217 HD
ENDBRANCH   8  31
BRANCH  10  33
ATOM     33  C16 UNK     1      44.998   5.550 -11.350  1.00  0.00    -0.002 A 
ATOM     34  C17 UNK     1      44.285   4.445 -10.877  1.00  0.00     0.014 A 
ATOM     35  C19 UNK     1      44.428   3.203 -11.496  1.00  0.00     0.001 A 
ATOM     36  C21 UNK     1      45.282   3.062 -12.589  1.00  0.00     0.000 A 
ATOM     37  C20 UNK     1      45.996   4.163 -13.063  1.00  0.00     0.001 A 
ATOM     38  C18 UNK     1      45.853   5.405 -12.444  1.00  0.00     0.014 A 
ENDBRANCH  10  33
TORSDOF 10
ENDMDL
MODEL 8
REMARK VINA RESULT:      -6.1      2.621      8.330
REMARK  10 active torsions:
REMARK  status: ('A' for Active; 'I' for Inactive)
REMARK    1  A    between atoms: O2_2  and  C4_15 
REMARK    2  A    between atoms: O2_2  and  C7_18 
REMARK    3  A    between atoms: O3_3  and  C1_12 
REMARK    4  A    between atoms: O4_4  and  C2_13 
REMARK    5  A    between atoms: O5_5  and  C3_14 
REMARK    6  A    between atoms: O6_6  and  C6_17 
REMARK    7  A    between atoms: O9_9  and  C9_20 
REMARK    8  A    between atoms: O10_10  and  C12_23 
REMARK    9  A    between atoms: C5_16  and  C6_17 
REMARK   10  A    between atoms: C14_25  and  C16_27 
ROOT
ATOM      1  O8  UNK     1      46.307  11.501  -7.677  1.00  0.00    -0.309 OA
ATOM      2  O11 UNK     1      48.329   8.047  -8.441  1.00  0.00    -0.287 OA
ATOM      3  C7  UNK     1      43.822   9.843  -9.764  1.00  0.00     0.110 A 
ATOM      4  C8  UNK     1      44.457  10.791  -8.962  1.00  0.00     0.078 A 
ATOM      5  C9  UNK     1      44.459   8.638 -10.063  1.00  0.00     0.134 A 
ATOM      6  C10 UNK     1      45.733  10.531  -8.458  1.00  0.00     0.096 A 
ATOM      7  C11 UNK     1      46.367   9.327  -8.759  1.00  0.00     0.084 A 
ATOM      8  C12 UNK     1      45.734   8.375  -9.561  1.00  0.00     0.118 A 
ATOM      9  C13 UNK     1      47.712   9.080  -8.216  1.00  0.00     0.190 A 
ATOM     10  C14 UNK     1      47.571  11.267  -7.157  1.00  0.00     0.090 A 
ATOM     11  C15 UNK     1      48.285  10.153  -7.378  1.00  0.00     0.094 A 
ENDROOT
BRANCH   3  12
ATOM     12  O2  UNK     1      42.575  10.107 -10.251  1.00  0.00    -0.315 OA
BRANCH  12  13
ATOM     13  C4  UNK     1      42.508  10.715 -11.541  1.00  0.00     0.299 C 
ATOM     14  O1  UNK     1      42.245  12.109 -11.402  1.00  0.00    -0.340 OA
ATOM     15  C5  UNK     1      42.189  12.777 -12.658  1.00  0.00     0.253 C 
ATOM     16  C3  UNK     1      41.047  12.240 -13.513  1.00  0.00     0.189 C 
ATOM     17  C1  UNK     1      41.156  10.723 -13.671  1.00  0.00     0.183 C 
ATOM     18  C2  UNK     1      41.384  10.037 -12.324  1.00  0.00     0.205 C 
BRANCH  15  19
ATOM     19  C6  UNK     1      41.948  14.202 -12.278  1.00  0.00     0.172 C 
ATOM     20  O7  UNK     1      42.125  15.163 -13.012  1.00  0.00    -0.648 OA
BRANCH  19  21
ATOM     21  O6  UNK     1      41.506  14.289 -11.000  1.00  0.00    -0.774 OA
ATOM     22  H10 UNK     1      41.176  13.427 -10.666  1.00  0.00     0.167 HD
ENDBRANCH  19  21
ENDBRANCH  15  19
BRANCH  16  23
ATOM     23  O5  UNK     1      41.115  12.849 -14.801  1.00  0.00    -0.390 OA
ATOM     24  H8  UNK     1      40.456  12.419 -15.373  1.00  0.00     0.210 HD
ENDBRANCH  16  23
BRANCH  17  25
ATOM     25  O3  UNK     1      39.937  10.250 -14.247  1.00  0.00    -0.390 OA
ATOM     26  H6  UNK     1      39.285  10.165 -13.531  1.00  0.00     0.210 HD
ENDBRANCH  17  25
BRANCH  18  27
ATOM     27  O4  UNK     1      41.750   8.674 -12.543  1.00  0.00    -0.388 OA
ATOM     28  H7  UNK     1      42.087   8.602 -13.451  1.00  0.00     0.210 HD
ENDBRANCH  18  27
ENDBRANCH  12  13
ENDBRANCH   3  12
BRANCH   5  29
ATOM     29  O9  UNK     1      43.831   7.716 -10.848  1.00  0.00    -0.356 OA
ATOM     30  H12 UNK     1      44.441   6.973 -11.000  1.00  0.00     0.218 HD
ENDBRANCH   5  29
BRANCH   8  31
ATOM     31  O10 UNK     1      46.324   7.187  -9.875  1.00  0.00    -0.357 OA
ATOM     32  H13 UNK     1      46.860   7.271 -10.678  1.00  0.00     0.217 HD
ENDBRANCH   8  31
BRANCH  10  33
ATOM     33  C16 UNK     1      48.096  12.376  -6.335  1.00  0.00    -0.002 A 
ATOM     34  C17 UNK     1      48.949  13.327  -6.902  1.00  0.00     0.014 A 
ATOM     35  C19 UNK     1      49.444  14.375  -6.125  1.00  0.00     0.001 A 
ATOM     36  C21 UNK     1      49.087  14.477  -4.781  1.00  0.00     0.000 A 
ATOM     37  C20 UNK     1      48.236  13.530  -4.212  1.00  0.00     0.001 A 
ATOM     38  C18 UNK     1      47.741  12.482  -4.988  1.00  0.00     0.014 A 
ENDBRANCH  10  33
TORSDOF 10
ENDMDL
MODEL 9
REMARK VINA RESULT:      -6.1      3.293      8.285
REMARK  10 active torsions:
REMARK  status: ('A' for Active; 'I' for Inactive)
REMARK    1  A    between atoms: O2_2  and  C4_15 
REMARK    2  A    between atoms: O2_2  and  C7_18 
REMARK    3  A    between atoms: O3_3  and  C1_12 
REMARK    4  A    between atoms: O4_4  and  C2_13 
REMARK    5  A    between atoms: O5_5  and  C3_14 
REMARK    6  A    between atoms: O6_6  and  C6_17 
REMARK    7  A    between atoms: O9_9  and  C9_20 
REMARK    8  A    between atoms: O10_10  and  C12_23 
REMARK    9  A    between atoms: C5_16  and  C6_17 
REMARK   10  A    between atoms: C14_25  and  C16_27 
ROOT
ATOM      1  O8  UNK     1      47.453  10.572  -7.658  1.00  0.00    -0.309 OA
ATOM      2  O11 UNK     1      50.238   7.650  -7.109  1.00  0.00    -0.287 OA
ATOM      3  C7  UNK     1      46.185   8.130 -10.047  1.00  0.00     0.110 A 
ATOM      4  C8  UNK     1      46.318   9.290  -9.284  1.00  0.00     0.078 A 
ATOM      5  C9  UNK     1      47.105   7.090  -9.906  1.00  0.00     0.134 A 
ATOM      6  C10 UNK     1      47.374   9.409  -8.379  1.00  0.00     0.096 A 
ATOM      7  C11 UNK     1      48.291   8.369  -8.241  1.00  0.00     0.084 A 
ATOM      8  C12 UNK     1      48.161   7.205  -9.002  1.00  0.00     0.118 A 
ATOM      9  C13 UNK     1      49.395   8.521  -7.280  1.00  0.00     0.190 A 
ATOM     10  C14 UNK     1      48.487  10.715  -6.746  1.00  0.00     0.090 A 
ATOM     11  C15 UNK     1      49.434   9.790  -6.526  1.00  0.00     0.094 A 
ENDROOT
BRANCH   3  12
ATOM     12  O2  UNK     1      45.150   8.024 -10.929  1.00  0.00    -0.315 OA
BRANCH  12  13
ATOM     13  C4  UNK     1      44.106   8.992 -10.809  1.00  0.00     0.299 C 
ATOM     14  O1  UNK     1      42.945   8.382 -10.251  1.00  0.00    -0.340 OA
ATOM     15  C5  UNK     1      41.875   9.306 -10.085  1.00  0.00     0.253 C 
ATOM     16  C3  UNK     1      41.423   9.866 -11.429  1.00  0.00     0.189 C 
ATOM     17  C1  UNK     1      42.602  10.480 -12.184  1.00  0.00     0.183 C 
ATOM     18  C2  UNK     1      43.804   9.535 -12.206  1.00  0.00     0.205 C 
BRANCH  15  19
ATOM     19  C6  UNK     1      40.799   8.476  -9.463  1.00  0.00     0.172 C 
ATOM     20  O7  UNK     1      40.762   7.255  -9.470  1.00  0.00    -0.648 OA
BRANCH  19  21
ATOM     21  O6  UNK     1      39.860   9.265  -8.887  1.00  0.00    -0.774 OA
ATOM     22  H10 UNK     1      39.532   9.955  -9.503  1.00  0.00     0.167 HD
ENDBRANCH  19  21
ENDBRANCH  15  19
BRANCH  16  23
ATOM     23  O5  UNK     1      40.442  10.875 -11.196  1.00  0.00    -0.390 OA
ATOM     24  H8  UNK     1      40.874  11.742 -11.286  1.00  0.00     0.210 HD
ENDBRANCH  16  23
BRANCH  17  25
ATOM     25  O3  UNK     1      42.180  10.746 -13.522  1.00  0.00    -0.390 OA
ATOM     26  H6  UNK     1      41.536  10.062 -13.770  1.00  0.00     0.210 HD
ENDBRANCH  17  25
BRANCH  18  27
ATOM     27  O4  UNK     1      44.954  10.241 -12.671  1.00  0.00    -0.388 OA
ATOM     28  H7  UNK     1      45.739   9.737 -12.399  1.00  0.00     0.210 HD
ENDBRANCH  18  27
ENDBRANCH  12  13
ENDBRANCH   3  12
BRANCH   5  29
ATOM     29  O9  UNK     1      46.968   5.958 -10.656  1.00  0.00    -0.356 OA
ATOM     30  H12 UNK     1      47.827   5.754 -11.066  1.00  0.00     0.218 HD
ENDBRANCH   5  29
BRANCH   8  31
ATOM     31  O10 UNK     1      49.039   6.168  -8.893  1.00  0.00    -0.357 OA
ATOM     32  H13 UNK     1      49.059   5.646  -9.710  1.00  0.00     0.217 HD
ENDBRANCH   8  31
BRANCH  10  33
ATOM     33  C16 UNK     1      48.481  12.006  -6.028  1.00  0.00    -0.002 A 
ATOM     34  C17 UNK     1      48.933  13.165  -6.665  1.00  0.00     0.014 A 
ATOM     35  C19 UNK     1      48.925  14.384  -5.987  1.00  0.00     0.001 A 
ATOM     36  C21 UNK     1      48.466  14.449  -4.672  1.00  0.00     0.000 A 
ATOM     37  C20 UNK     1      48.015  13.294  -4.033  1.00  0.00     0.001 A 
ATOM     38  C18 UNK     1      48.022  12.075  -4.711  1.00  0.00     0.014 A 
ENDBRANCH  10  33
TORSDOF 10
ENDMDL
MODEL 10
REMARK VINA RESULT:      -6.1      3.208      5.386
REMARK  10 active torsions:
REMARK  status: ('A' for Active; 'I' for Inactive)
REMARK    1  A    between atoms: O2_2  and  C4_15 
REMARK    2  A    between atoms: O2_2  and  C7_18 
REMARK    3  A    between atoms: O3_3  and  C1_12 
REMARK    4  A    between atoms: O4_4  and  C2_13 
REMARK    5  A    between atoms: O5_5  and  C3_14 
REMARK    6  A    between atoms: O6_6  and  C6_17 
REMARK    7  A    between atoms: O9_9  and  C9_20 
REMARK    8  A    between atoms: O10_10  and  C12_23 
REMARK    9  A    between atoms: C5_16  and  C6_17 
REMARK   10  A    between atoms: C14_25  and  C16_27 
ROOT
ATOM      1  O8  UNK     1      45.859   7.363 -10.048  1.00  0.00    -0.309 OA
ATOM      2  O11 UNK     1      42.483   9.638  -9.880  1.00  0.00    -0.287 OA
ATOM      3  C7  UNK     1      47.190  10.212  -8.207  1.00  0.00     0.110 A 
ATOM      4  C8  UNK     1      47.100   8.983  -8.859  1.00  0.00     0.078 A 
ATOM      5  C9  UNK     1      46.070  11.039  -8.113  1.00  0.00     0.134 A 
ATOM      6  C10 UNK     1      45.886   8.581  -9.418  1.00  0.00     0.096 A 
ATOM      7  C11 UNK     1      44.769   9.409  -9.323  1.00  0.00     0.084 A 
ATOM      8  C12 UNK     1      44.855  10.641  -8.670  1.00  0.00     0.118 A 
ATOM      9  C13 UNK     1      43.502   8.962  -9.923  1.00  0.00     0.190 A 
ATOM     10  C14 UNK     1      44.664   6.935 -10.606  1.00  0.00     0.090 A 
ATOM     11  C15 UNK     1      43.524   7.642 -10.586  1.00  0.00     0.094 A 
ENDROOT
BRANCH   3  12
ATOM     12  O2  UNK     1      48.381  10.595  -7.663  1.00  0.00    -0.315 OA
BRANCH  12  13
ATOM     13  C4  UNK     1      48.361  10.985  -6.290  1.00  0.00     0.299 C 
ATOM     14  O1  UNK     1      48.851  12.318  -6.161  1.00  0.00    -0.340 OA
ATOM     15  C5  UNK     1      48.835  12.773  -4.813  1.00  0.00     0.253 C 
ATOM     16  C3  UNK     1      49.751  11.926  -3.938  1.00  0.00     0.189 C 
ATOM     17  C1  UNK     1      49.390  10.445  -4.050  1.00  0.00     0.183 C 
ATOM     18  C2  UNK     1      49.249  10.014  -5.510  1.00  0.00     0.205 C 
BRANCH  15  19
ATOM     19  C6  UNK     1      49.341  14.175  -4.917  1.00  0.00     0.172 C 
ATOM     20  O7  UNK     1      48.648  15.156  -5.141  1.00  0.00    -0.648 OA
BRANCH  19  21
ATOM     21  O6  UNK     1      50.683  14.214  -4.732  1.00  0.00    -0.774 OA
ATOM     22  H10 UNK     1      50.935  14.830  -4.011  1.00  0.00     0.167 HD
ENDBRANCH  19  21
ENDBRANCH  15  19
BRANCH  16  23
ATOM     23  O5  UNK     1      49.599  12.341  -2.581  1.00  0.00    -0.390 OA
ATOM     24  H8  UNK     1      50.358  12.002  -2.075  1.00  0.00     0.210 HD
ENDBRANCH  16  23
BRANCH  17  25
ATOM     25  O3  UNK     1      50.430   9.688  -3.429  1.00  0.00    -0.390 OA
ATOM     26  H6  UNK     1      51.161  10.297  -3.230  1.00  0.00     0.210 HD
ENDBRANCH  17  25
BRANCH  18  27
ATOM     27  O4  UNK     1      48.652   8.718  -5.567  1.00  0.00    -0.388 OA
ATOM     28  H7  UNK     1      47.785   8.774  -5.131  1.00  0.00     0.210 HD
ENDBRANCH  18  27
ENDBRANCH  12  13
ENDBRANCH   3  12
BRANCH   5  29
ATOM     29  O9  UNK     1      46.167  12.241  -7.472  1.00  0.00    -0.356 OA
ATOM     30  H12 UNK     1      45.674  12.183  -6.635  1.00  0.00     0.218 HD
ENDBRANCH   5  29
BRANCH   8  31
ATOM     31  O10 UNK     1      43.783  11.476  -8.558  1.00  0.00    -0.357 OA
ATOM     32  H13 UNK     1      43.744  12.088  -9.309  1.00  0.00     0.217 HD
ENDBRANCH   8  31
BRANCH  10  33
ATOM     33  C16 UNK     1      44.748   5.614 -11.262  1.00  0.00    -0.002 A 
ATOM     34  C17 UNK     1      45.644   5.408 -12.315  1.00  0.00     0.014 A 
ATOM     35  C19 UNK     1      45.723   4.160 -12.933  1.00  0.00     0.001 A 
ATOM     36  C21 UNK     1      44.908   3.114 -12.501  1.00  0.00     0.000 A 
ATOM     37  C20 UNK     1      44.013   3.315 -11.450  1.00  0.00     0.001 A 
ATOM     38  C18 UNK     1      43.933   4.564 -10.832  1.00  0.00     0.014 A 
ENDBRANCH  10  33
TORSDOF 10
ENDMDL
MODEL 11
REMARK VINA RESULT:      -6.0      3.387      4.509
REMARK  10 active torsions:
REMARK  status: ('A' for Active; 'I' for Inactive)
REMARK    1  A    between atoms: O2_2  and  C4_15 
REMARK    2  A    between atoms: O2_2  and  C7_18 
REMARK    3  A    between atoms: O3_3  and  C1_12 
REMARK    4  A    between atoms: O4_4  and  C2_13 
REMARK    5  A    between atoms: O5_5  and  C3_14 
REMARK    6  A    between atoms: O6_6  and  C6_17 
REMARK    7  A    between atoms: O9_9  and  C9_20 
REMARK    8  A    between atoms: O10_10  and  C12_23 
REMARK    9  A    between atoms: C5_16  and  C6_17 
REMARK   10  A    between atoms: C14_25  and  C16_27 
ROOT
ATOM      1  O8  UNK     1      44.803   9.245  -9.325  1.00  0.00    -0.309 OA
ATOM      2  O11 UNK     1      46.405   9.276 -13.071  1.00  0.00    -0.287 OA
ATOM      3  C7  UNK     1      48.263   9.980  -8.451  1.00  0.00     0.110 A 
ATOM      4  C8  UNK     1      46.896   9.723  -8.343  1.00  0.00     0.078 A 
ATOM      5  C9  UNK     1      48.874  10.006  -9.705  1.00  0.00     0.134 A 
ATOM      6  C10 UNK     1      46.141   9.493  -9.494  1.00  0.00     0.096 A 
ATOM      7  C11 UNK     1      46.754   9.519 -10.745  1.00  0.00     0.084 A 
ATOM      8  C12 UNK     1      48.122   9.776 -10.857  1.00  0.00     0.118 A 
ATOM      9  C13 UNK     1      45.934   9.271 -11.941  1.00  0.00     0.190 A 
ATOM     10  C14 UNK     1      44.026   9.020 -10.451  1.00  0.00     0.090 A 
ATOM     11  C15 UNK     1      44.499   9.014 -11.707  1.00  0.00     0.094 A 
ENDROOT
BRANCH   3  12
ATOM     12  O2  UNK     1      48.992  10.205  -7.320  1.00  0.00    -0.315 OA
BRANCH  12  13
ATOM     13  C4  UNK     1      49.106  11.562  -6.892  1.00  0.00     0.299 C 
ATOM     14  O1  UNK     1      50.401  12.063  -7.216  1.00  0.00    -0.340 OA
ATOM     15  C5  UNK     1      50.567  13.423  -6.832  1.00  0.00     0.253 C 
ATOM     16  C3  UNK     1      50.444  13.584  -5.321  1.00  0.00     0.189 C 
ATOM     17  C1  UNK     1      49.123  13.002  -4.819  1.00  0.00     0.183 C 
ATOM     18  C2  UNK     1      48.884  11.599  -5.379  1.00  0.00     0.205 C 
BRANCH  15  19
ATOM     19  C6  UNK     1      51.951  13.743  -7.293  1.00  0.00     0.172 C 
ATOM     20  O7  UNK     1      52.828  12.920  -7.506  1.00  0.00    -0.648 OA
BRANCH  19  21
ATOM     21  O6  UNK     1      52.108  15.081  -7.444  1.00  0.00    -0.774 OA
ATOM     22  H10 UNK     1      52.993  15.383  -7.148  1.00  0.00     0.167 HD
ENDBRANCH  19  21
ENDBRANCH  15  19
BRANCH  16  23
ATOM     23  O5  UNK     1      50.490  14.975  -5.005  1.00  0.00    -0.390 OA
ATOM     24  H8  UNK     1      51.421  15.223  -4.870  1.00  0.00     0.210 HD
ENDBRANCH  16  23
BRANCH  17  25
ATOM     25  O3  UNK     1      49.179  12.942  -3.393  1.00  0.00    -0.390 OA
ATOM     26  H6  UNK     1      49.377  13.835  -3.067  1.00  0.00     0.210 HD
ENDBRANCH  17  25
BRANCH  18  27
ATOM     27  O4  UNK     1      47.536  11.207  -5.115  1.00  0.00    -0.388 OA
ATOM     28  H7  UNK     1      46.993  11.496  -5.866  1.00  0.00     0.210 HD
ENDBRANCH  18  27
ENDBRANCH  12  13
ENDBRANCH   3  12
BRANCH   5  29
ATOM     29  O9  UNK     1      50.212  10.258  -9.802  1.00  0.00    -0.356 OA
ATOM     30  H12 UNK     1      50.559   9.784 -10.578  1.00  0.00     0.218 HD
ENDBRANCH   5  29
BRANCH   8  31
ATOM     31  O10 UNK     1      48.754   9.810 -12.064  1.00  0.00    -0.357 OA
ATOM     32  H13 UNK     1      48.212  10.268 -12.724  1.00  0.00     0.217 HD
ENDBRANCH   8  31
BRANCH  10  33
ATOM     33  C16 UNK     1      42.602   8.760 -10.156  1.00  0.00    -0.002 A 
ATOM     34  C17 UNK     1      41.655   9.774 -10.320  1.00  0.00     0.014 A 
ATOM     35  C19 UNK     1      40.310   9.528 -10.042  1.00  0.00     0.001 A 
ATOM     36  C21 UNK     1      39.908   8.268  -9.600  1.00  0.00     0.000 A 
ATOM     37  C20 UNK     1      40.851   7.253  -9.434  1.00  0.00     0.001 A 
ATOM     38  C18 UNK     1      42.196   7.499  -9.713  1.00  0.00     0.014 A 
ENDBRANCH  10  33
TORSDOF 10
ENDMDL
MODEL 12
REMARK VINA RESULT:      -5.9      3.610      8.270
REMARK  10 active torsions:
REMARK  status: ('A' for Active; 'I' for Inactive)
REMARK    1  A    between atoms: O2_2  and  C4_15 
REMARK    2  A    between atoms: O2_2  and  C7_18 
REMARK    3  A    between atoms: O3_3  and  C1_12 
REMARK    4  A    between atoms: O4_4  and  C2_13 
REMARK    5  A    between atoms: O5_5  and  C3_14 
REMARK    6  A    between atoms: O6_6  and  C6_17 
REMARK    7  A    between atoms: O9_9  and  C9_20 
REMARK    8  A    between atoms: O10_10  and  C12_23 
REMARK    9  A    between atoms: C5_16  and  C6_17 
REMARK   10  A    between atoms: C14_25  and  C16_27 
ROOT
ATOM      1  O8  UNK     1      47.308  11.827  -8.497  1.00  0.00    -0.309 OA
ATOM      2  O11 UNK     1      50.713  11.714 -10.732  1.00  0.00    -0.287 OA
ATOM      3  C7  UNK     1      45.961  10.255 -11.496  1.00  0.00     0.110 A 
ATOM      4  C8  UNK     1      46.053  10.809 -10.219  1.00  0.00     0.078 A 
ATOM      5  C9  UNK     1      47.091  10.185 -12.312  1.00  0.00     0.134 A 
ATOM      6  C10 UNK     1      47.280  11.293  -9.759  1.00  0.00     0.096 A 
ATOM      7  C11 UNK     1      48.406  11.222 -10.577  1.00  0.00     0.084 A 
ATOM      8  C12 UNK     1      48.317  10.668 -11.856  1.00  0.00     0.118 A 
ATOM      9  C13 UNK     1      49.685  11.741 -10.069  1.00  0.00     0.190 A 
ATOM     10  C14 UNK     1      48.514  12.309  -8.011  1.00  0.00     0.090 A 
ATOM     11  C15 UNK     1      49.665  12.302  -8.702  1.00  0.00     0.094 A 
ENDROOT
BRANCH   3  12
ATOM     12  O2  UNK     1      44.758   9.785 -11.935  1.00  0.00    -0.315 OA
BRANCH  12  13
ATOM     13  C4  UNK     1      43.858   9.302 -10.937  1.00  0.00     0.299 C 
ATOM     14  O1  UNK     1      43.758   7.883 -11.026  1.00  0.00    -0.340 OA
ATOM     15  C5  UNK     1      42.889   7.339 -10.039  1.00  0.00     0.253 C 
ATOM     16  C3  UNK     1      41.465   7.850 -10.222  1.00  0.00     0.189 C 
ATOM     17  C1  UNK     1      41.435   9.378 -10.236  1.00  0.00     0.183 C 
ATOM     18  C2  UNK     1      42.493   9.948 -11.181  1.00  0.00     0.205 C 
BRANCH  15  19
ATOM     19  C6  UNK     1      42.965   5.868 -10.288  1.00  0.00     0.172 C 
ATOM     20  O7  UNK     1      43.299   5.350 -11.343  1.00  0.00    -0.648 OA
BRANCH  19  21
ATOM     21  O6  UNK     1      42.608   5.175  -9.179  1.00  0.00    -0.774 OA
ATOM     22  H10 UNK     1      41.912   5.639  -8.665  1.00  0.00     0.167 HD
ENDBRANCH  19  21
ENDBRANCH  15  19
BRANCH  16  23
ATOM     23  O5  UNK     1      40.667   7.378  -9.137  1.00  0.00    -0.390 OA
ATOM     24  H8  UNK     1      40.492   6.433  -9.281  1.00  0.00     0.210 HD
ENDBRANCH  16  23
BRANCH  17  25
ATOM     25  O3  UNK     1      40.138   9.792 -10.668  1.00  0.00    -0.390 OA
ATOM     26  H6  UNK     1      39.490   9.440 -10.036  1.00  0.00     0.210 HD
ENDBRANCH  17  25
BRANCH  18  27
ATOM     27  O4  UNK     1      42.618  11.353 -10.961  1.00  0.00    -0.388 OA
ATOM     28  H7  UNK     1      42.652  11.499 -10.001  1.00  0.00     0.210 HD
ENDBRANCH  18  27
ENDBRANCH  12  13
ENDBRANCH   3  12
BRANCH   5  29
ATOM     29  O9  UNK     1      46.991   9.642 -13.561  1.00  0.00    -0.356 OA
ATOM     30  H12 UNK     1      47.831   9.195 -13.769  1.00  0.00     0.218 HD
ENDBRANCH   5  29
BRANCH   8  31
ATOM     31  O10 UNK     1      49.398  10.582 -12.683  1.00  0.00    -0.357 OA
ATOM     32  H13 UNK     1      49.119  10.430 -13.599  1.00  0.00     0.217 HD
ENDBRANCH   8  31
BRANCH  10  33
ATOM     33  C16 UNK     1      48.432  12.865  -6.645  1.00  0.00    -0.002 A 
ATOM     34  C17 UNK     1      48.942  14.137  -6.374  1.00  0.00     0.014 A 
ATOM     35  C19 UNK     1      48.863  14.663  -5.083  1.00  0.00     0.001 A 
ATOM     36  C21 UNK     1      48.274  13.919  -4.062  1.00  0.00     0.000 A 
ATOM     37  C20 UNK     1      47.764  12.648  -4.329  1.00  0.00     0.001 A 
ATOM     38  C18 UNK     1      47.843  12.123  -5.619  1.00  0.00     0.014 A 
ENDBRANCH  10  33
TORSDOF 10
ENDMDL
MODEL 13
REMARK VINA RESULT:      -5.9      3.475      5.627
REMARK  10 active torsions:
REMARK  status: ('A' for Active; 'I' for Inactive)
REMARK    1  A    between atoms: O2_2  and  C4_15 
REMARK    2  A    between atoms: O2_2  and  C7_18 
REMARK    3  A    between atoms: O3_3  and  C1_12 
REMARK    4  A    between atoms: O4_4  and  C2_13 
REMARK    5  A    between atoms: O5_5  and  C3_14 
REMARK    6  A    between atoms: O6_6  and  C6_17 
REMARK    7  A    between atoms: O9_9  and  C9_20 
REMARK    8  A    between atoms: O10_10  and  C12_23 
REMARK    9  A    between atoms: C5_16  and  C6_17 
REMARK   10  A    between atoms: C14_25  and  C16_27 
ROOT
ATOM      1  O8  UNK     1      45.588   7.176 -10.269  1.00  0.00    -0.309 OA
ATOM      2  O11 UNK     1      42.324   9.525  -9.617  1.00  0.00    -0.287 OA
ATOM      3  C7  UNK     1      47.222   9.946  -8.556  1.00  0.00     0.110 A 
ATOM      4  C8  UNK     1      47.015   8.735  -9.217  1.00  0.00     0.078 A 
ATOM      5  C9  UNK     1      46.145  10.797  -8.300  1.00  0.00     0.134 A 
ATOM      6  C10 UNK     1      45.729   8.377  -9.623  1.00  0.00     0.096 A 
ATOM      7  C11 UNK     1      44.656   9.228  -9.366  1.00  0.00     0.084 A 
ATOM      8  C12 UNK     1      44.858  10.441  -8.704  1.00  0.00     0.118 A 
ATOM      9  C13 UNK     1      43.311   8.826  -9.806  1.00  0.00     0.190 A 
ATOM     10  C14 UNK     1      44.320   6.790 -10.677  1.00  0.00     0.090 A 
ATOM     11  C15 UNK     1      43.211   7.523 -10.493  1.00  0.00     0.094 A 
ENDROOT
BRANCH   3  12
ATOM     12  O2  UNK     1      48.483  10.287  -8.163  1.00  0.00    -0.315 OA
BRANCH  12  13
ATOM     13  C4  UNK     1      48.849   9.951  -6.825  1.00  0.00     0.299 C 
ATOM     14  O1  UNK     1      48.562  11.046  -5.958  1.00  0.00    -0.340 OA
ATOM     15  C5  UNK     1      48.885  10.762  -4.601  1.00  0.00     0.253 C 
ATOM     16  C3  UNK     1      50.379  10.504  -4.437  1.00  0.00     0.189 C 
ATOM     17  C1  UNK     1      50.846   9.399  -5.384  1.00  0.00     0.183 C 
ATOM     18  C2  UNK     1      50.345   9.637  -6.809  1.00  0.00     0.205 C 
BRANCH  15  19
ATOM     19  C6  UNK     1      48.475  12.005  -3.883  1.00  0.00     0.172 C 
ATOM     20  O7  UNK     1      47.370  12.524  -3.953  1.00  0.00    -0.648 OA
BRANCH  19  21
ATOM     21  O6  UNK     1      49.499  12.488  -3.138  1.00  0.00    -0.774 OA
ATOM     22  H10 UNK     1      49.778  13.381  -3.433  1.00  0.00     0.167 HD
ENDBRANCH  19  21
ENDBRANCH  15  19
BRANCH  16  23
ATOM     23  O5  UNK     1      50.628  10.101  -3.092  1.00  0.00    -0.390 OA
ATOM     24  H8  UNK     1      50.696   9.131  -3.075  1.00  0.00     0.210 HD
ENDBRANCH  16  23
BRANCH  17  25
ATOM     25  O3  UNK     1      52.274   9.385  -5.377  1.00  0.00    -0.390 OA
ATOM     26  H6  UNK     1      52.579  10.307  -5.400  1.00  0.00     0.210 HD
ENDBRANCH  17  25
BRANCH  18  27
ATOM     27  O4  UNK     1      50.564   8.463  -7.591  1.00  0.00    -0.388 OA
ATOM     28  H7  UNK     1      50.799   8.747  -8.490  1.00  0.00     0.210 HD
ENDBRANCH  18  27
ENDBRANCH  12  13
ENDBRANCH   3  12
BRANCH   5  29
ATOM     29  O9  UNK     1      46.356  11.980  -7.652  1.00  0.00    -0.356 OA
ATOM     30  H12 UNK     1      45.599  12.147  -7.063  1.00  0.00     0.218 HD
ENDBRANCH   5  29
BRANCH   8  31
ATOM     31  O10 UNK     1      43.833  11.298  -8.436  1.00  0.00    -0.357 OA
ATOM     32  H13 UNK     1      43.038  10.812  -8.169  1.00  0.00     0.217 HD
ENDBRANCH   8  31
BRANCH  10  33
ATOM     33  C16 UNK     1      44.283   5.483 -11.366  1.00  0.00    -0.002 A 
ATOM     34  C17 UNK     1      45.383   5.052 -12.112  1.00  0.00     0.014 A 
ATOM     35  C19 UNK     1      45.348   3.818 -12.761  1.00  0.00     0.001 A 
ATOM     36  C21 UNK     1      44.215   3.011 -12.666  1.00  0.00     0.000 A 
ATOM     37  C20 UNK     1      43.115   3.438 -11.922  1.00  0.00     0.001 A 
ATOM     38  C18 UNK     1      43.150   4.673 -11.273  1.00  0.00     0.014 A 
ENDBRANCH  10  33
TORSDOF 10
ENDMDL
MODEL 14
REMARK VINA RESULT:      -5.8      3.771      9.211
REMARK  10 active torsions:
REMARK  status: ('A' for Active; 'I' for Inactive)
REMARK    1  A    between atoms: O2_2  and  C4_15 
REMARK    2  A    between atoms: O2_2  and  C7_18 
REMARK    3  A    between atoms: O3_3  and  C1_12 
REMARK    4  A    between atoms: O4_4  and  C2_13 
REMARK    5  A    between atoms: O5_5  and  C3_14 
REMARK    6  A    between atoms: O6_6  and  C6_17 
REMARK    7  A    between atoms: O9_9  and  C9_20 
REMARK    8  A    between atoms: O10_10  and  C12_23 
REMARK    9  A    between atoms: C5_16  and  C6_17 
REMARK   10  A    between atoms: C14_25  and  C16_27 
ROOT
ATOM      1  O8  UNK     1      48.721   9.784  -6.524  1.00  0.00    -0.309 OA
ATOM      2  O11 UNK     1      51.514   7.525  -8.445  1.00  0.00    -0.287 OA
ATOM      3  C7  UNK     1      46.954   9.258  -9.667  1.00  0.00     0.110 A 
ATOM      4  C8  UNK     1      47.258   9.686  -8.375  1.00  0.00     0.078 A 
ATOM      5  C9  UNK     1      47.868   8.480 -10.380  1.00  0.00     0.134 A 
ATOM      6  C10 UNK     1      48.478   9.334  -7.796  1.00  0.00     0.096 A 
ATOM      7  C11 UNK     1      49.389   8.557  -8.510  1.00  0.00     0.084 A 
ATOM      8  C12 UNK     1      49.088   8.126  -9.805  1.00  0.00     0.118 A 
ATOM      9  C13 UNK     1      50.668   8.202  -7.877  1.00  0.00     0.190 A 
ATOM     10  C14 UNK     1      49.922   9.444  -5.920  1.00  0.00     0.090 A 
ATOM     11  C15 UNK     1      50.879   8.707  -6.505  1.00  0.00     0.094 A 
ENDROOT
BRANCH   3  12
ATOM     12  O2  UNK     1      45.759   9.608 -10.224  1.00  0.00    -0.315 OA
BRANCH  12  13
ATOM     13  C4  UNK     1      44.618   8.854  -9.813  1.00  0.00     0.299 C 
ATOM     14  O1  UNK     1      44.399   7.778 -10.723  1.00  0.00    -0.340 OA
ATOM     15  C5  UNK     1      43.284   6.975 -10.352  1.00  0.00     0.253 C 
ATOM     16  C3  UNK     1      41.993   7.785 -10.375  1.00  0.00     0.189 C 
ATOM     17  C1  UNK     1      42.120   9.032  -9.500  1.00  0.00     0.183 C 
ATOM     18  C2  UNK     1      43.412   9.794  -9.799  1.00  0.00     0.205 C 
BRANCH  15  19
ATOM     19  C6  UNK     1      43.266   5.909 -11.399  1.00  0.00     0.172 C 
ATOM     20  O7  UNK     1      43.870   5.957 -12.460  1.00  0.00    -0.648 OA
BRANCH  19  21
ATOM     21  O6  UNK     1      42.480   4.874 -11.015  1.00  0.00    -0.774 OA
ATOM     22  H10 UNK     1      41.569   4.953 -11.371  1.00  0.00     0.167 HD
ENDBRANCH  19  21
ENDBRANCH  15  19
BRANCH  16  23
ATOM     23  O5  UNK     1      40.934   6.971  -9.875  1.00  0.00    -0.390 OA
ATOM     24  H8  UNK     1      40.762   6.268 -10.524  1.00  0.00     0.210 HD
ENDBRANCH  16  23
BRANCH  17  25
ATOM     25  O3  UNK     1      40.998   9.875  -9.765  1.00  0.00    -0.390 OA
ATOM     26  H6  UNK     1      41.233  10.456 -10.508  1.00  0.00     0.210 HD
ENDBRANCH  17  25
BRANCH  18  27
ATOM     27  O4  UNK     1      43.625  10.780  -8.789  1.00  0.00    -0.388 OA
ATOM     28  H7  UNK     1      44.522  11.134  -8.908  1.00  0.00     0.210 HD
ENDBRANCH  18  27
ENDBRANCH  12  13
ENDBRANCH   3  12
BRANCH   5  29
ATOM     29  O9  UNK     1      47.563   8.066 -11.645  1.00  0.00    -0.356 OA
ATOM     30  H12 UNK     1      48.087   7.270 -11.842  1.00  0.00     0.218 HD
ENDBRANCH   5  29
BRANCH   8  31
ATOM     31  O10 UNK     1      49.954   7.366 -10.532  1.00  0.00    -0.357 OA
ATOM     32  H13 UNK     1      50.872   7.562 -10.290  1.00  0.00     0.217 HD
ENDBRANCH   8  31
BRANCH  10  33
ATOM     33  C16 UNK     1      50.082   9.984  -4.555  1.00  0.00    -0.002 A 
ATOM     34  C17 UNK     1      51.185   9.616  -3.780  1.00  0.00     0.014 A 
ATOM     35  C19 UNK     1      51.337  10.127  -2.491  1.00  0.00     0.001 A 
ATOM     36  C21 UNK     1      50.387  11.007  -1.972  1.00  0.00     0.000 A 
ATOM     37  C20 UNK     1      49.284  11.376  -2.743  1.00  0.00     0.001 A 
ATOM     38  C18 UNK     1      49.132  10.865  -4.032  1.00  0.00     0.014 A 
ENDBRANCH  10  33
TORSDOF 10
ENDMDL
MODEL 15
REMARK VINA RESULT:      -5.8      3.121      7.799
REMARK  10 active torsions:
REMARK  status: ('A' for Active; 'I' for Inactive)
REMARK    1  A    between atoms: O2_2  and  C4_15 
REMARK    2  A    between atoms: O2_2  and  C7_18 
REMARK    3  A    between atoms: O3_3  and  C1_12 
REMARK    4  A    between atoms: O4_4  and  C2_13 
REMARK    5  A    between atoms: O5_5  and  C3_14 
REMARK    6  A    between atoms: O6_6  and  C6_17 
REMARK    7  A    between atoms: O9_9  and  C9_20 
REMARK    8  A    between atoms: O10_10  and  C12_23 
REMARK    9  A    between atoms: C5_16  and  C6_17 
REMARK   10  A    between atoms: C14_25  and  C16_27 
ROOT
ATOM      1  O8  UNK     1      47.228  11.037  -8.093  1.00  0.00    -0.309 OA
ATOM      2  O11 UNK     1      49.449  12.260 -11.283  1.00  0.00    -0.287 OA
ATOM      3  C7  UNK     1      45.905   8.757 -10.609  1.00  0.00     0.110 A 
ATOM      4  C8  UNK     1      46.118   9.409  -9.394  1.00  0.00     0.078 A 
ATOM      5  C9  UNK     1      46.634   9.126 -11.740  1.00  0.00     0.134 A 
ATOM      6  C10 UNK     1      47.063  10.433  -9.313  1.00  0.00     0.096 A 
ATOM      7  C11 UNK     1      47.789  10.800 -10.444  1.00  0.00     0.084 A 
ATOM      8  C12 UNK     1      47.579  10.149 -11.662  1.00  0.00     0.118 A 
ATOM      9  C13 UNK     1      48.777  11.884 -10.331  1.00  0.00     0.190 A 
ATOM     10  C14 UNK     1      48.165  12.053  -7.981  1.00  0.00     0.090 A 
ATOM     11  C15 UNK     1      48.920  12.500  -8.996  1.00  0.00     0.094 A 
ENDROOT
BRANCH   3  12
ATOM     12  O2  UNK     1      44.979   7.757 -10.677  1.00  0.00    -0.315 OA
BRANCH  12  13
ATOM     13  C4  UNK     1      43.653   8.138 -11.045  1.00  0.00     0.299 C 
ATOM     14  O1  UNK     1      43.644   9.496 -11.477  1.00  0.00    -0.340 OA
ATOM     15  C5  UNK     1      42.349   9.928 -11.879  1.00  0.00     0.253 C 
ATOM     16  C3  UNK     1      41.368   9.875 -10.713  1.00  0.00     0.189 C 
ATOM     17  C1  UNK     1      41.342   8.479 -10.090  1.00  0.00     0.183 C 
ATOM     18  C2  UNK     1      42.755   7.963  -9.819  1.00  0.00     0.205 C 
BRANCH  15  19
ATOM     19  C6  UNK     1      42.579  11.337 -12.321  1.00  0.00     0.172 C 
ATOM     20  O7  UNK     1      43.082  11.665 -13.385  1.00  0.00    -0.648 OA
BRANCH  19  21
ATOM     21  O6  UNK     1      42.155  12.210 -11.375  1.00  0.00    -0.774 OA
ATOM     22  H10 UNK     1      41.341  11.898 -10.925  1.00  0.00     0.167 HD
ENDBRANCH  19  21
ENDBRANCH  15  19
BRANCH  16  23
ATOM     23  O5  UNK     1      40.065  10.193 -11.198  1.00  0.00    -0.390 OA
ATOM     24  H8  UNK     1      40.086  11.101 -11.546  1.00  0.00     0.210 HD
ENDBRANCH  16  23
BRANCH  17  25
ATOM     25  O3  UNK     1      40.619   8.558  -8.860  1.00  0.00    -0.390 OA
ATOM     26  H6  UNK     1      40.239   9.449  -8.797  1.00  0.00     0.210 HD
ENDBRANCH  17  25
BRANCH  18  27
ATOM     27  O4  UNK     1      42.699   6.573  -9.500  1.00  0.00    -0.388 OA
ATOM     28  H7  UNK     1      43.604   6.279  -9.303  1.00  0.00     0.210 HD
ENDBRANCH  18  27
ENDBRANCH  12  13
ENDBRANCH   3  12
BRANCH   5  29
ATOM     29  O9  UNK     1      46.419   8.483 -12.925  1.00  0.00    -0.356 OA
ATOM     30  H12 UNK     1      45.542   8.062 -12.891  1.00  0.00     0.218 HD
ENDBRANCH   5  29
BRANCH   8  31
ATOM     31  O10 UNK     1      48.271  10.482 -12.788  1.00  0.00    -0.357 OA
ATOM     32  H13 UNK     1      47.773  11.120 -13.322  1.00  0.00     0.217 HD
ENDBRANCH   8  31
BRANCH  10  33
ATOM     33  C16 UNK     1      48.258  12.637  -6.627  1.00  0.00    -0.002 A 
ATOM     34  C17 UNK     1      48.864  13.882  -6.440  1.00  0.00     0.014 A 
ATOM     35  C19 UNK     1      48.951  14.433  -5.162  1.00  0.00     0.001 A 
ATOM     36  C21 UNK     1      48.431  13.743  -4.067  1.00  0.00     0.000 A 
ATOM     37  C20 UNK     1      47.825  12.500  -4.250  1.00  0.00     0.001 A 
ATOM     38  C18 UNK     1      47.739  11.949  -5.529  1.00  0.00     0.014 A 
ENDBRANCH  10  33
TORSDOF 10
ENDMDL
MODEL 16
REMARK VINA RESULT:      -5.8      1.777      3.296
REMARK  10 active torsions:
REMARK  status: ('A' for Active; 'I' for Inactive)
REMARK    1  A    between atoms: O2_2  and  C4_15 
REMARK    2  A    between atoms: O2_2  and  C7_18 
REMARK    3  A    between atoms: O3_3  and  C1_12 
REMARK    4  A    between atoms: O4_4  and  C2_13 
REMARK    5  A    between atoms: O5_5  and  C3_14 
REMARK    6  A    between atoms: O6_6  and  C6_17 
REMARK    7  A    between atoms: O9_9  and  C9_20 
REMARK    8  A    between atoms: O10_10  and  C12_23 
REMARK    9  A    between atoms: C5_16  and  C6_17 
REMARK   10  A    between atoms: C14_25  and  C16_27 
ROOT
ATOM      1  O8  UNK     1      44.755  11.400 -10.621  1.00  0.00    -0.309 OA
ATOM      2  O11 UNK     1      46.793  14.013 -12.991  1.00  0.00    -0.287 OA
ATOM      3  C7  UNK     1      48.027  11.167  -9.033  1.00  0.00     0.110 A 
ATOM      4  C8  UNK     1      46.677  10.962  -9.321  1.00  0.00     0.078 A 
ATOM      5  C9  UNK     1      48.782  12.051  -9.806  1.00  0.00     0.134 A 
ATOM      6  C10 UNK     1      46.084  11.643 -10.385  1.00  0.00     0.096 A 
ATOM      7  C11 UNK     1      46.840  12.524 -11.156  1.00  0.00     0.084 A 
ATOM      8  C12 UNK     1      48.191  12.733 -10.870  1.00  0.00     0.118 A 
ATOM      9  C13 UNK     1      46.190  13.228 -12.272  1.00  0.00     0.190 A 
ATOM     10  C14 UNK     1      44.137  12.068 -11.667  1.00  0.00     0.090 A 
ATOM     11  C15 UNK     1      44.758  12.935 -12.482  1.00  0.00     0.094 A 
ENDROOT
BRANCH   3  12
ATOM     12  O2  UNK     1      48.597  10.497  -7.991  1.00  0.00    -0.315 OA
BRANCH  12  13
ATOM     13  C4  UNK     1      48.361  11.025  -6.685  1.00  0.00     0.299 C 
ATOM     14  O1  UNK     1      48.897  12.343  -6.596  1.00  0.00    -0.340 OA
ATOM     15  C5  UNK     1      48.673  12.933  -5.320  1.00  0.00     0.253 C 
ATOM     16  C3  UNK     1      49.373  12.143  -4.221  1.00  0.00     0.189 C 
ATOM     17  C1  UNK     1      48.953  10.674  -4.258  1.00  0.00     0.183 C 
ATOM     18  C2  UNK     1      49.042  10.103  -5.673  1.00  0.00     0.205 C 
BRANCH  15  19
ATOM     19  C6  UNK     1      49.270  14.296  -5.462  1.00  0.00     0.172 C 
ATOM     20  O7  UNK     1      49.065  15.234  -4.706  1.00  0.00    -0.648 OA
BRANCH  19  21
ATOM     21  O6  UNK     1      50.073  14.355  -6.552  1.00  0.00    -0.774 OA
ATOM     22  H10 UNK     1      50.903  14.846  -6.370  1.00  0.00     0.167 HD
ENDBRANCH  19  21
ENDBRANCH  15  19
BRANCH  16  23
ATOM     23  O5  UNK     1      49.013  12.699  -2.958  1.00  0.00    -0.390 OA
ATOM     24  H8  UNK     1      48.664  13.594  -3.110  1.00  0.00     0.210 HD
ENDBRANCH  16  23
BRANCH  17  25
ATOM     25  O3  UNK     1      49.824   9.943  -3.393  1.00  0.00    -0.390 OA
ATOM     26  H6  UNK     1      49.271   9.448  -2.766  1.00  0.00     0.210 HD
ENDBRANCH  17  25
BRANCH  18  27
ATOM     27  O4  UNK     1      48.390   8.834  -5.715  1.00  0.00    -0.388 OA
ATOM     28  H7  UNK     1      47.987   8.739  -6.594  1.00  0.00     0.210 HD
ENDBRANCH  18  27
ENDBRANCH  12  13
ENDBRANCH   3  12
BRANCH   5  29
ATOM     29  O9  UNK     1      50.101  12.246  -9.517  1.00  0.00    -0.356 OA
ATOM     30  H12 UNK     1      50.269  11.924  -8.614  1.00  0.00     0.218 HD
ENDBRANCH   5  29
BRANCH   8  31
ATOM     31  O10 UNK     1      48.961  13.587 -11.601  1.00  0.00    -0.357 OA
ATOM     32  H13 UNK     1      49.694  13.931 -11.068  1.00  0.00     0.217 HD
ENDBRANCH   8  31
BRANCH  10  33
ATOM     33  C16 UNK     1      42.709  11.729 -11.835  1.00  0.00    -0.002 A 
ATOM     34  C17 UNK     1      42.185  10.581 -11.235  1.00  0.00     0.014 A 
ATOM     35  C19 UNK     1      40.836  10.262 -11.393  1.00  0.00     0.001 A 
ATOM     36  C21 UNK     1      40.007  11.090 -12.149  1.00  0.00     0.000 A 
ATOM     37  C20 UNK     1      40.526  12.237 -12.750  1.00  0.00     0.001 A 
ATOM     38  C18 UNK     1      41.875  12.556 -12.592  1.00  0.00     0.014 A 
ENDBRANCH  10  33
TORSDOF 10
ENDMDL
MODEL 17
REMARK VINA RESULT:      -5.8      4.662      6.871
REMARK  10 active torsions:
REMARK  status: ('A' for Active; 'I' for Inactive)
REMARK    1  A    between atoms: O2_2  and  C4_15 
REMARK    2  A    between atoms: O2_2  and  C7_18 
REMARK    3  A    between atoms: O3_3  and  C1_12 
REMARK    4  A    between atoms: O4_4  and  C2_13 
REMARK    5  A    between atoms: O5_5  and  C3_14 
REMARK    6  A    between atoms: O6_6  and  C6_17 
REMARK    7  A    between atoms: O9_9  and  C9_20 
REMARK    8  A    between atoms: O10_10  and  C12_23 
REMARK    9  A    between atoms: C5_16  and  C6_17 
REMARK   10  A    between atoms: C14_25  and  C16_27 
ROOT
ATOM      1  O8  UNK     1      43.242  13.638 -11.913  1.00  0.00    -0.309 OA
ATOM      2  O11 UNK     1      39.468  12.890 -13.255  1.00  0.00    -0.287 OA
ATOM      3  C7  UNK     1      42.856  10.244 -10.644  1.00  0.00     0.110 A 
ATOM      4  C8  UNK     1      43.401  11.495 -10.935  1.00  0.00     0.078 A 
ATOM      5  C9  UNK     1      41.568   9.924 -11.076  1.00  0.00     0.134 A 
ATOM      6  C10 UNK     1      42.654  12.426 -11.659  1.00  0.00     0.096 A 
ATOM      7  C11 UNK     1      41.368  12.103 -12.089  1.00  0.00     0.084 A 
ATOM      8  C12 UNK     1      40.819  10.852 -11.800  1.00  0.00     0.118 A 
ATOM      9  C13 UNK     1      40.603  13.104 -12.849  1.00  0.00     0.190 A 
ATOM     10  C14 UNK     1      42.527  14.580 -12.637  1.00  0.00     0.090 A 
ATOM     11  C15 UNK     1      41.281  14.391 -13.100  1.00  0.00     0.094 A 
ENDROOT
BRANCH   3  12
ATOM     12  O2  UNK     1      43.594   9.342  -9.936  1.00  0.00    -0.315 OA
BRANCH  12  13
ATOM     13  C4  UNK     1      44.256   8.325 -10.690  1.00  0.00     0.299 C 
ATOM     14  O1  UNK     1      43.515   7.110 -10.613  1.00  0.00    -0.340 OA
ATOM     15  C5  UNK     1      44.115   6.061 -11.366  1.00  0.00     0.253 C 
ATOM     16  C3  UNK     1      45.498   5.720 -10.823  1.00  0.00     0.189 C 
ATOM     17  C1  UNK     1      46.381   6.967 -10.766  1.00  0.00     0.183 C 
ATOM     18  C2  UNK     1      45.653   8.135 -10.100  1.00  0.00     0.205 C 
BRANCH  15  19
ATOM     19  C6  UNK     1      43.170   4.920 -11.179  1.00  0.00     0.172 C 
ATOM     20  O7  UNK     1      43.351   3.783 -11.591  1.00  0.00    -0.648 OA
BRANCH  19  21
ATOM     21  O6  UNK     1      42.073   5.314 -10.487  1.00  0.00    -0.774 OA
ATOM     22  H10 UNK     1      42.225   6.157 -10.008  1.00  0.00     0.167 HD
ENDBRANCH  19  21
ENDBRANCH  15  19
BRANCH  16  23
ATOM     23  O5  UNK     1      46.103   4.759 -11.686  1.00  0.00    -0.390 OA
ATOM     24  H8  UNK     1      45.416   4.130 -11.967  1.00  0.00     0.210 HD
ENDBRANCH  16  23
BRANCH  17  25
ATOM     25  O3  UNK     1      47.552   6.645 -10.015  1.00  0.00    -0.390 OA
ATOM     26  H6  UNK     1      48.121   6.093 -10.577  1.00  0.00     0.210 HD
ENDBRANCH  17  25
BRANCH  18  27
ATOM     27  O4  UNK     1      46.395   9.337 -10.311  1.00  0.00    -0.388 OA
ATOM     28  H7  UNK     1      46.058   9.752 -11.122  1.00  0.00     0.210 HD
ENDBRANCH  18  27
ENDBRANCH  12  13
ENDBRANCH   3  12
BRANCH   5  29
ATOM     29  O9  UNK     1      41.042   8.697 -10.787  1.00  0.00    -0.356 OA
ATOM     30  H12 UNK     1      40.252   8.824 -10.233  1.00  0.00     0.218 HD
ENDBRANCH   5  29
BRANCH   8  31
ATOM     31  O10 UNK     1      39.565  10.502 -12.204  1.00  0.00    -0.357 OA
ATOM     32  H13 UNK     1      39.159   9.888 -11.573  1.00  0.00     0.217 HD
ENDBRANCH   8  31
BRANCH  10  33
ATOM     33  C16 UNK     1      43.251  15.850 -12.850  1.00  0.00    -0.002 A 
ATOM     34  C17 UNK     1      43.066  16.573 -14.031  1.00  0.00     0.014 A 
ATOM     35  C19 UNK     1      43.749  17.773 -14.231  1.00  0.00     0.001 A 
ATOM     36  C21 UNK     1      44.618  18.254 -13.252  1.00  0.00     0.000 A 
ATOM     37  C20 UNK     1      44.805  17.534 -12.071  1.00  0.00     0.001 A 
ATOM     38  C18 UNK     1      44.121  16.334 -11.871  1.00  0.00     0.014 A 
ENDBRANCH  10  33
TORSDOF 10
ENDMDL
MODEL 18
REMARK VINA RESULT:      -5.8      3.427      6.278
REMARK  10 active torsions:
REMARK  status: ('A' for Active; 'I' for Inactive)
REMARK    1  A    between atoms: O2_2  and  C4_15 
REMARK    2  A    between atoms: O2_2  and  C7_18 
REMARK    3  A    between atoms: O3_3  and  C1_12 
REMARK    4  A    between atoms: O4_4  and  C2_13 
REMARK    5  A    between atoms: O5_5  and  C3_14 
REMARK    6  A    between atoms: O6_6  and  C6_17 
REMARK    7  A    between atoms: O9_9  and  C9_20 
REMARK    8  A    between atoms: O10_10  and  C12_23 
REMARK    9  A    between atoms: C5_16  and  C6_17 
REMARK   10  A    between atoms: C14_25  and  C16_27 
ROOT
ATOM      1  O8  UNK     1      46.129   7.122 -10.395  1.00  0.00    -0.309 OA
ATOM      2  O11 UNK     1      42.065   7.405 -10.310  1.00  0.00    -0.287 OA
ATOM      3  C7  UNK     1      45.827  10.491  -9.040  1.00  0.00     0.110 A 
ATOM      4  C8  UNK     1      46.375   9.300  -9.516  1.00  0.00     0.078 A 
ATOM      5  C9  UNK     1      44.442  10.652  -8.983  1.00  0.00     0.134 A 
ATOM      6  C10 UNK     1      45.533   8.268  -9.936  1.00  0.00     0.096 A 
ATOM      7  C11 UNK     1      44.150   8.432  -9.879  1.00  0.00     0.084 A 
ATOM      8  C12 UNK     1      43.598   9.624  -9.402  1.00  0.00     0.118 A 
ATOM      9  C13 UNK     1      43.286   7.330 -10.330  1.00  0.00     0.190 A 
ATOM     10  C14 UNK     1      45.317   6.077 -10.812  1.00  0.00     0.090 A 
ATOM     11  C15 UNK     1      43.976   6.116 -10.811  1.00  0.00     0.094 A 
ENDROOT
BRANCH   3  12
ATOM     12  O2  UNK     1      46.659  11.492  -8.632  1.00  0.00    -0.315 OA
BRANCH  12  13
ATOM     13  C4  UNK     1      47.800  11.103  -7.867  1.00  0.00     0.299 C 
ATOM     14  O1  UNK     1      47.613  11.471  -6.502  1.00  0.00    -0.340 OA
ATOM     15  C5  UNK     1      48.712  11.088  -5.683  1.00  0.00     0.253 C 
ATOM     16  C3  UNK     1      49.990  11.798  -6.114  1.00  0.00     0.189 C 
ATOM     17  C1  UNK     1      50.268  11.559  -7.598  1.00  0.00     0.183 C 
ATOM     18  C2  UNK     1      49.022  11.816  -8.447  1.00  0.00     0.205 C 
BRANCH  15  19
ATOM     19  C6  UNK     1      48.292  11.527  -4.318  1.00  0.00     0.172 C 
ATOM     20  O7  UNK     1      47.604  12.508  -4.076  1.00  0.00    -0.648 OA
BRANCH  19  21
ATOM     21  O6  UNK     1      48.781  10.687  -3.373  1.00  0.00    -0.774 OA
ATOM     22  H10 UNK     1      48.347  10.821  -2.503  1.00  0.00     0.167 HD
ENDBRANCH  19  21
ENDBRANCH  15  19
BRANCH  16  23
ATOM     23  O5  UNK     1      51.078  11.285  -5.348  1.00  0.00    -0.390 OA
ATOM     24  H8  UNK     1      51.549  12.037  -4.951  1.00  0.00     0.210 HD
ENDBRANCH  16  23
BRANCH  17  25
ATOM     25  O3  UNK     1      51.311  12.447  -8.002  1.00  0.00    -0.390 OA
ATOM     26  H6  UNK     1      51.332  12.456  -8.973  1.00  0.00     0.210 HD
ENDBRANCH  17  25
BRANCH  18  27
ATOM     27  O4  UNK     1      49.240  11.324  -9.770  1.00  0.00    -0.388 OA
ATOM     28  H7  UNK     1      48.373  11.110 -10.151  1.00  0.00     0.210 HD
ENDBRANCH  18  27
ENDBRANCH  12  13
ENDBRANCH   3  12
BRANCH   5  29
ATOM     29  O9  UNK     1      43.915  11.821  -8.516  1.00  0.00    -0.356 OA
ATOM     30  H12 UNK     1      44.636  12.468  -8.422  1.00  0.00     0.218 HD
ENDBRANCH   5  29
BRANCH   8  31
ATOM     31  O10 UNK     1      42.251   9.819  -9.332  1.00  0.00    -0.357 OA
ATOM     32  H13 UNK     1      42.013  10.698  -9.664  1.00  0.00     0.217 HD
ENDBRANCH   8  31
BRANCH  10  33
ATOM     33  C16 UNK     1      46.060   4.894 -11.291  1.00  0.00    -0.002 A 
ATOM     34  C17 UNK     1      46.298   4.720 -12.657  1.00  0.00     0.014 A 
ATOM     35  C19 UNK     1      47.001   3.603 -13.108  1.00  0.00     0.001 A 
ATOM     36  C21 UNK     1      47.469   2.657 -12.197  1.00  0.00     0.000 A 
ATOM     37  C20 UNK     1      47.234   2.828 -10.832  1.00  0.00     0.001 A 
ATOM     38  C18 UNK     1      46.531   3.945 -10.381  1.00  0.00     0.014 A 
ENDBRANCH  10  33
TORSDOF 10
ENDMDL
MODEL 19
REMARK VINA RESULT:      -5.7      4.698      7.682
REMARK  10 active torsions:
REMARK  status: ('A' for Active; 'I' for Inactive)
REMARK    1  A    between atoms: O2_2  and  C4_15 
REMARK    2  A    between atoms: O2_2  and  C7_18 
REMARK    3  A    between atoms: O3_3  and  C1_12 
REMARK    4  A    between atoms: O4_4  and  C2_13 
REMARK    5  A    between atoms: O5_5  and  C3_14 
REMARK    6  A    between atoms: O6_6  and  C6_17 
REMARK    7  A    between atoms: O9_9  and  C9_20 
REMARK    8  A    between atoms: O10_10  and  C12_23 
REMARK    9  A    between atoms: C5_16  and  C6_17 
REMARK   10  A    between atoms: C14_25  and  C16_27 
ROOT
ATOM      1  O8  UNK     1      48.907   8.733  -6.345  1.00  0.00    -0.309 OA
ATOM      2  O11 UNK     1      48.067  12.212  -8.293  1.00  0.00    -0.287 OA
ATOM      3  C7  UNK     1      49.192  11.035  -3.534  1.00  0.00     0.110 A 
ATOM      4  C8  UNK     1      49.186   9.863  -4.290  1.00  0.00     0.078 A 
ATOM      5  C9  UNK     1      48.912  12.261  -4.140  1.00  0.00     0.134 A 
ATOM      6  C10 UNK     1      48.898   9.918  -5.655  1.00  0.00     0.096 A 
ATOM      7  C11 UNK     1      48.618  11.143  -6.257  1.00  0.00     0.084 A 
ATOM      8  C12 UNK     1      48.623  12.319  -5.504  1.00  0.00     0.118 A 
ATOM      9  C13 UNK     1      48.319  11.173  -7.697  1.00  0.00     0.190 A 
ATOM     10  C14 UNK     1      48.617   8.757  -7.701  1.00  0.00     0.090 A 
ATOM     11  C15 UNK     1      48.338   9.871  -8.395  1.00  0.00     0.094 A 
ENDROOT
BRANCH   3  12
ATOM     12  O2  UNK     1      49.475  10.970  -2.202  1.00  0.00    -0.315 OA
BRANCH  12  13
ATOM     13  C4  UNK     1      50.807  11.308  -1.813  1.00  0.00     0.299 C 
ATOM     14  O1  UNK     1      51.688  10.232  -2.129  1.00  0.00    -0.340 OA
ATOM     15  C5  UNK     1      53.038  10.520  -1.784  1.00  0.00     0.253 C 
ATOM     16  C3  UNK     1      53.187  10.729  -0.282  1.00  0.00     0.189 C 
ATOM     17  C1  UNK     1      52.225  11.808   0.213  1.00  0.00     0.183 C 
ATOM     18  C2  UNK     1      50.807  11.571  -0.307  1.00  0.00     0.205 C 
BRANCH  15  19
ATOM     19  C6  UNK     1      53.774   9.298  -2.230  1.00  0.00     0.172 C 
ATOM     20  O7  UNK     1      54.908   9.289  -2.685  1.00  0.00    -0.648 OA
BRANCH  19  21
ATOM     21  O6  UNK     1      53.009   8.192  -2.065  1.00  0.00    -0.774 OA
ATOM     22  H10 UNK     1      53.532   7.431  -1.734  1.00  0.00     0.167 HD
ENDBRANCH  19  21
ENDBRANCH  15  19
BRANCH  16  23
ATOM     23  O5  UNK     1      54.527  11.138  -0.008  1.00  0.00    -0.390 OA
ATOM     24  H8  UNK     1      55.053  10.342   0.180  1.00  0.00     0.210 HD
ENDBRANCH  16  23
BRANCH  17  25
ATOM     25  O3  UNK     1      52.220  11.774   1.642  1.00  0.00    -0.390 OA
ATOM     26  H6  UNK     1      53.046  12.182   1.950  1.00  0.00     0.210 HD
ENDBRANCH  17  25
BRANCH  18  27
ATOM     27  O4  UNK     1      50.010  12.729  -0.056  1.00  0.00    -0.388 OA
ATOM     28  H7  UNK     1      49.082  12.489  -0.213  1.00  0.00     0.210 HD
ENDBRANCH  18  27
ENDBRANCH  12  13
ENDBRANCH   3  12
BRANCH   5  29
ATOM     29  O9  UNK     1      48.920  13.403  -3.394  1.00  0.00    -0.356 OA
ATOM     30  H12 UNK     1      49.820  13.540  -3.051  1.00  0.00     0.218 HD
ENDBRANCH   5  29
BRANCH   8  31
ATOM     31  O10 UNK     1      48.354  13.535  -6.060  1.00  0.00    -0.357 OA
ATOM     32  H13 UNK     1      48.851  14.235  -5.611  1.00  0.00     0.217 HD
ENDBRANCH   8  31
BRANCH  10  33
ATOM     33  C16 UNK     1      48.659   7.429  -8.347  1.00  0.00    -0.002 A 
ATOM     34  C17 UNK     1      49.258   6.349  -7.692  1.00  0.00     0.014 A 
ATOM     35  C19 UNK     1      49.296   5.095  -8.302  1.00  0.00     0.001 A 
ATOM     36  C21 UNK     1      48.737   4.916  -9.567  1.00  0.00     0.000 A 
ATOM     37  C20 UNK     1      48.139   5.992 -10.223  1.00  0.00     0.001 A 
ATOM     38  C18 UNK     1      48.100   7.246  -9.614  1.00  0.00     0.014 A 
ENDBRANCH  10  33
TORSDOF 10
ENDMDL
MODEL 20
REMARK VINA RESULT:      -5.6      3.228      8.651
REMARK  10 active torsions:
REMARK  status: ('A' for Active; 'I' for Inactive)
REMARK    1  A    between atoms: O2_2  and  C4_15 
REMARK    2  A    between atoms: O2_2  and  C7_18 
REMARK    3  A    between atoms: O3_3  and  C1_12 
REMARK    4  A    between atoms: O4_4  and  C2_13 
REMARK    5  A    between atoms: O5_5  and  C3_14 
REMARK    6  A    between atoms: O6_6  and  C6_17 
REMARK    7  A    between atoms: O9_9  and  C9_20 
REMARK    8  A    between atoms: O10_10  and  C12_23 
REMARK    9  A    between atoms: C5_16  and  C6_17 
REMARK   10  A    between atoms: C14_25  and  C16_27 
ROOT
ATOM      1  O8  UNK     1      47.328  10.973  -7.678  1.00  0.00    -0.309 OA
ATOM      2  O11 UNK     1      49.637  13.154 -10.229  1.00  0.00    -0.287 OA
ATOM      3  C7  UNK     1      45.316  10.625 -10.696  1.00  0.00     0.110 A 
ATOM      4  C8  UNK     1      45.757  10.507  -9.378  1.00  0.00     0.078 A 
ATOM      5  C9  UNK     1      46.061  11.358 -11.621  1.00  0.00     0.134 A 
ATOM      6  C10 UNK     1      46.946  11.123  -8.986  1.00  0.00     0.096 A 
ATOM      7  C11 UNK     1      47.688  11.855  -9.912  1.00  0.00     0.084 A 
ATOM      8  C12 UNK     1      47.250  11.975 -11.233  1.00  0.00     0.118 A 
ATOM      9  C13 UNK     1      48.937  12.495  -9.471  1.00  0.00     0.190 A 
ATOM     10  C14 UNK     1      48.509  11.568  -7.262  1.00  0.00     0.090 A 
ATOM     11  C15 UNK     1      49.306  12.300  -8.055  1.00  0.00     0.094 A 
ENDROOT
BRANCH   3  12
ATOM     12  O2  UNK     1      44.152  10.018 -11.069  1.00  0.00    -0.315 OA
BRANCH  12  13
ATOM     13  C4  UNK     1      43.840   8.783 -10.424  1.00  0.00     0.299 C 
ATOM     14  O1  UNK     1      44.363   7.697 -11.186  1.00  0.00    -0.340 OA
ATOM     15  C5  UNK     1      44.102   6.436 -10.580  1.00  0.00     0.253 C 
ATOM     16  C3  UNK     1      42.604   6.173 -10.487  1.00  0.00     0.189 C 
ATOM     17  C1  UNK     1      41.896   7.317  -9.762  1.00  0.00     0.183 C 
ATOM     18  C2  UNK     1      42.319   8.676 -10.320  1.00  0.00     0.205 C 
BRANCH  15  19
ATOM     19  C6  UNK     1      44.760   5.467 -11.508  1.00  0.00     0.172 C 
ATOM     20  O7  UNK     1      44.992   5.674 -12.690  1.00  0.00    -0.648 OA
BRANCH  19  21
ATOM     21  O6  UNK     1      45.064   4.316 -10.861  1.00  0.00    -0.774 OA
ATOM     22  H10 UNK     1      44.484   4.168 -10.083  1.00  0.00     0.167 HD
ENDBRANCH  19  21
ENDBRANCH  15  19
BRANCH  16  23
ATOM     23  O5  UNK     1      42.397   4.962  -9.761  1.00  0.00    -0.390 OA
ATOM     24  H8  UNK     1      41.445   4.878  -9.580  1.00  0.00     0.210 HD
ENDBRANCH  16  23
BRANCH  17  25
ATOM     25  O3  UNK     1      40.489   7.147  -9.936  1.00  0.00    -0.390 OA
ATOM     26  H6  UNK     1      40.282   7.329 -10.867  1.00  0.00     0.210 HD
ENDBRANCH  17  25
BRANCH  18  27
ATOM     27  O4  UNK     1      41.856   9.710  -9.450  1.00  0.00    -0.388 OA
ATOM     28  H7  UNK     1      42.376   9.660  -8.630  1.00  0.00     0.210 HD
ENDBRANCH  18  27
ENDBRANCH  12  13
ENDBRANCH   3  12
BRANCH   5  29
ATOM     29  O9  UNK     1      45.623  11.468 -12.909  1.00  0.00    -0.356 OA
ATOM     30  H12 UNK     1      45.835  10.643 -13.378  1.00  0.00     0.218 HD
ENDBRANCH   5  29
BRANCH   8  31
ATOM     31  O10 UNK     1      47.950  12.682 -12.164  1.00  0.00    -0.357 OA
ATOM     32  H13 UNK     1      47.503  12.656 -13.024  1.00  0.00     0.217 HD
ENDBRANCH   8  31
BRANCH  10  33
ATOM     33  C16 UNK     1      48.823  11.347  -5.835  1.00  0.00    -0.002 A 
ATOM     34  C17 UNK     1      48.248  12.161  -4.856  1.00  0.00     0.014 A 
ATOM     35  C19 UNK     1      48.543  11.951  -3.509  1.00  0.00     0.001 A 
ATOM     36  C21 UNK     1      49.413  10.927  -3.136  1.00  0.00     0.000 A 
ATOM     37  C20 UNK     1      49.989  10.112  -4.111  1.00  0.00     0.001 A 
ATOM     38  C18 UNK     1      49.694  10.322  -5.459  1.00  0.00     0.014 A 
ENDBRANCH  10  33
TORSDOF 10
ENDMDL
