MODEL 1
REMARK VINA RESULT:      -7.2      0.000      0.000
REMARK  10 active torsions:
REMARK  status: ('A' for Active; 'I' for Inactive)
REMARK    1  A    between atoms: O2_2  and  C4_15 
REMARK    2  A    between atoms: O2_2  and  C7_18 
REMARK    3  A    between atoms: O3_3  and  C1_12 
REMARK    4  A    between atoms: O4_4  and  C2_13 
REMARK    5  A    between atoms: O5_5  and  C3_14 
REMARK    6  A    between atoms: O6_6  and  C6_17 
REMARK    7  A    between atoms: O9_9  and  C9_20 
REMARK    8  A    between atoms: O10_10  and  C12_23 
REMARK    9  A    between atoms: C5_16  and  C6_17 
REMARK   10  A    between atoms: C14_25  and  C16_27 
ROOT
ATOM      1  O8  UNK     1      44.097   2.230   8.139  1.00  0.00    -0.309 OA
ATOM      2  O11 UNK     1      42.542   5.463  10.070  1.00  0.00    -0.287 OA
ATOM      3  C7  UNK     1      40.640   1.113   8.412  1.00  0.00     0.110 A 
ATOM      4  C8  UNK     1      42.000   1.144   8.108  1.00  0.00     0.078 A 
ATOM      5  C9  UNK     1      40.044   2.189   9.072  1.00  0.00     0.134 A 
ATOM      6  C10 UNK     1      42.765   2.256   8.464  1.00  0.00     0.096 A 
ATOM      7  C11 UNK     1      42.168   3.329   9.123  1.00  0.00     0.084 A 
ATOM      8  C12 UNK     1      40.806   3.301   9.430  1.00  0.00     0.118 A 
ATOM      9  C13 UNK     1      42.998   4.487   9.488  1.00  0.00     0.190 A 
ATOM     10  C14 UNK     1      44.881   3.324   8.474  1.00  0.00     0.090 A 
ATOM     11  C15 UNK     1      44.425   4.413   9.113  1.00  0.00     0.094 A 
ENDROOT
BRANCH   3  12
ATOM     12  O2  UNK     1      39.901   0.022   8.059  1.00  0.00    -0.315 OA
BRANCH  12  13
ATOM     13  C4  UNK     1      39.663  -0.948   9.081  1.00  0.00     0.299 C 
ATOM     14  O1  UNK     1      39.488  -0.292  10.335  1.00  0.00    -0.340 OA
ATOM     15  C5  UNK     1      39.225  -1.208  11.392  1.00  0.00     0.253 C 
ATOM     16  C3  UNK     1      40.399  -2.157  11.600  1.00  0.00     0.189 C 
ATOM     17  C1  UNK     1      40.757  -2.870  10.296  1.00  0.00     0.183 C 
ATOM     18  C2  UNK     1      40.872  -1.883   9.134  1.00  0.00     0.205 C 
BRANCH  15  19
ATOM     19  C6  UNK     1      39.039  -0.319  12.578  1.00  0.00     0.172 C 
ATOM     20  O7  UNK     1      39.003  -0.696  13.740  1.00  0.00    -0.648 OA
BRANCH  19  21
ATOM     21  O6  UNK     1      38.912   0.974  12.192  1.00  0.00    -0.774 OA
ATOM     22  H10 UNK     1      38.856   1.583  12.959  1.00  0.00     0.167 HD
ENDBRANCH  19  21
ENDBRANCH  15  19
BRANCH  16  23
ATOM     23  O5  UNK     1      40.034  -3.129  12.578  1.00  0.00    -0.390 OA
ATOM     24  H8  UNK     1      39.095  -3.000  12.796  1.00  0.00     0.210 HD
ENDBRANCH  16  23
BRANCH  17  25
ATOM     25  O3  UNK     1      42.008  -3.533  10.483  1.00  0.00    -0.390 OA
ATOM     26  H6  UNK     1      41.995  -3.947  11.362  1.00  0.00     0.210 HD
ENDBRANCH  17  25
BRANCH  18  27
ATOM     27  O4  UNK     1      40.933  -2.605   7.903  1.00  0.00    -0.388 OA
ATOM     28  H7  UNK     1      41.195  -1.980   7.208  1.00  0.00     0.210 HD
ENDBRANCH  18  27
ENDBRANCH  12  13
ENDBRANCH   3  12
BRANCH   5  29
ATOM     29  O9  UNK     1      38.712   2.149   9.367  1.00  0.00    -0.356 OA
ATOM     30  H12 UNK     1      38.558   1.427  10.000  1.00  0.00     0.218 HD
ENDBRANCH   5  29
BRANCH   8  31
ATOM     31  O10 UNK     1      40.188   4.332  10.073  1.00  0.00    -0.357 OA
ATOM     32  H13 UNK     1      39.710   4.014  10.853  1.00  0.00     0.217 HD
ENDBRANCH   8  31
BRANCH  10  33
ATOM     33  C16 UNK     1      46.299   3.189   8.082  1.00  0.00    -0.002 A 
ATOM     34  C17 UNK     1      46.665   2.298   7.071  1.00  0.00     0.014 A 
ATOM     35  C19 UNK     1      48.004   2.172   6.700  1.00  0.00     0.001 A 
ATOM     36  C21 UNK     1      48.980   2.936   7.338  1.00  0.00     0.000 A 
ATOM     37  C20 UNK     1      48.618   3.828   8.349  1.00  0.00     0.001 A 
ATOM     38  C18 UNK     1      47.279   3.954   8.719  1.00  0.00     0.014 A 
ENDBRANCH  10  33
TORSDOF 10
ENDMDL
MODEL 2
REMARK VINA RESULT:      -7.2      5.208      9.772
REMARK  10 active torsions:
REMARK  status: ('A' for Active; 'I' for Inactive)
REMARK    1  A    between atoms: O2_2  and  C4_15 
REMARK    2  A    between atoms: O2_2  and  C7_18 
REMARK    3  A    between atoms: O3_3  and  C1_12 
REMARK    4  A    between atoms: O4_4  and  C2_13 
REMARK    5  A    between atoms: O5_5  and  C3_14 
REMARK    6  A    between atoms: O6_6  and  C6_17 
REMARK    7  A    between atoms: O9_9  and  C9_20 
REMARK    8  A    between atoms: O10_10  and  C12_23 
REMARK    9  A    between atoms: C5_16  and  C6_17 
REMARK   10  A    between atoms: C14_25  and  C16_27 
ROOT
ATOM      1  O8  UNK     1      37.755  -5.629   5.664  1.00  0.00    -0.309 OA
ATOM      2  O11 UNK     1      37.082  -7.137   9.389  1.00  0.00    -0.287 OA
ATOM      3  C7  UNK     1      37.610  -2.497   7.522  1.00  0.00     0.110 A 
ATOM      4  C8  UNK     1      37.733  -3.411   6.476  1.00  0.00     0.078 A 
ATOM      5  C9  UNK     1      37.381  -2.948   8.823  1.00  0.00     0.134 A 
ATOM      6  C10 UNK     1      37.626  -4.779   6.733  1.00  0.00     0.096 A 
ATOM      7  C11 UNK     1      37.396  -5.227   8.033  1.00  0.00     0.084 A 
ATOM      8  C12 UNK     1      37.273  -4.315   9.083  1.00  0.00     0.118 A 
ATOM      9  C13 UNK     1      37.286  -6.674   8.275  1.00  0.00     0.190 A 
ATOM     10  C14 UNK     1      37.660  -6.994   5.891  1.00  0.00     0.090 A 
ATOM     11  C15 UNK     1      37.436  -7.546   7.093  1.00  0.00     0.094 A 
ENDROOT
BRANCH   3  12
ATOM     12  O2  UNK     1      37.717  -1.163   7.261  1.00  0.00    -0.315 OA
BRANCH  12  13
ATOM     13  C4  UNK     1      39.035  -0.614   7.267  1.00  0.00     0.299 C 
ATOM     14  O1  UNK     1      39.792  -1.190   8.328  1.00  0.00    -0.340 OA
ATOM     15  C5  UNK     1      41.126  -0.697   8.372  1.00  0.00     0.253 C 
ATOM     16  C3  UNK     1      41.147   0.804   8.637  1.00  0.00     0.189 C 
ATOM     17  C1  UNK     1      40.291   1.547   7.612  1.00  0.00     0.183 C 
ATOM     18  C2  UNK     1      38.915   0.899   7.458  1.00  0.00     0.205 C 
BRANCH  15  19
ATOM     19  C6  UNK     1      41.734  -1.450   9.510  1.00  0.00     0.172 C 
ATOM     20  O7  UNK     1      41.996  -0.976  10.605  1.00  0.00    -0.648 OA
BRANCH  19  21
ATOM     21  O6  UNK     1      41.962  -2.740   9.163  1.00  0.00    -0.774 OA
ATOM     22  H10 UNK     1      41.579  -3.368   9.812  1.00  0.00     0.167 HD
ENDBRANCH  19  21
ENDBRANCH  15  19
BRANCH  16  23
ATOM     23  O5  UNK     1      42.493   1.266   8.544  1.00  0.00    -0.390 OA
ATOM     24  H8  UNK     1      42.674   1.828   9.317  1.00  0.00     0.210 HD
ENDBRANCH  16  23
BRANCH  17  25
ATOM     25  O3  UNK     1      40.135   2.895   8.060  1.00  0.00    -0.390 OA
ATOM     26  H6  UNK     1      40.150   3.470   7.278  1.00  0.00     0.210 HD
ENDBRANCH  17  25
BRANCH  18  27
ATOM     27  O4  UNK     1      38.259   1.444   6.313  1.00  0.00    -0.388 OA
ATOM     28  H7  UNK     1      37.427   1.846   6.614  1.00  0.00     0.210 HD
ENDBRANCH  18  27
ENDBRANCH  12  13
ENDBRANCH   3  12
BRANCH   5  29
ATOM     29  O9  UNK     1      37.261  -2.047   9.841  1.00  0.00    -0.356 OA
ATOM     30  H12 UNK     1      36.315  -1.919  10.029  1.00  0.00     0.218 HD
ENDBRANCH   5  29
BRANCH   8  31
ATOM     31  O10 UNK     1      37.048  -4.716  10.366  1.00  0.00    -0.357 OA
ATOM     32  H13 UNK     1      36.101  -4.846  10.525  1.00  0.00     0.217 HD
ENDBRANCH   8  31
BRANCH  10  33
ATOM     33  C16 UNK     1      37.809  -7.816   4.673  1.00  0.00    -0.002 A 
ATOM     34  C17 UNK     1      39.019  -8.461   4.405  1.00  0.00     0.014 A 
ATOM     35  C19 UNK     1      39.159  -9.238   3.255  1.00  0.00     0.001 A 
ATOM     36  C21 UNK     1      38.090  -9.374   2.370  1.00  0.00     0.000 A 
ATOM     37  C20 UNK     1      36.881  -8.731   2.634  1.00  0.00     0.001 A 
ATOM     38  C18 UNK     1      36.741  -7.953   3.784  1.00  0.00     0.014 A 
ENDBRANCH  10  33
TORSDOF 10
ENDMDL
MODEL 3
REMARK VINA RESULT:      -7.0      1.715      2.944
REMARK  10 active torsions:
REMARK  status: ('A' for Active; 'I' for Inactive)
REMARK    1  A    between atoms: O2_2  and  C4_15 
REMARK    2  A    between atoms: O2_2  and  C7_18 
REMARK    3  A    between atoms: O3_3  and  C1_12 
REMARK    4  A    between atoms: O4_4  and  C2_13 
REMARK    5  A    between atoms: O5_5  and  C3_14 
REMARK    6  A    between atoms: O6_6  and  C6_17 
REMARK    7  A    between atoms: O9_9  and  C9_20 
REMARK    8  A    between atoms: O10_10  and  C12_23 
REMARK    9  A    between atoms: C5_16  and  C6_17 
REMARK   10  A    between atoms: C14_25  and  C16_27 
ROOT
ATOM      1  O8  UNK     1      44.523   3.009   8.478  1.00  0.00    -0.309 OA
ATOM      2  O11 UNK     1      44.442   4.169  12.384  1.00  0.00    -0.287 OA
ATOM      3  C7  UNK     1      40.956   2.611   9.110  1.00  0.00     0.110 A 
ATOM      4  C8  UNK     1      42.194   2.622   8.466  1.00  0.00     0.078 A 
ATOM      5  C9  UNK     1      40.859   2.998  10.448  1.00  0.00     0.134 A 
ATOM      6  C10 UNK     1      43.335   3.021   9.164  1.00  0.00     0.096 A 
ATOM      7  C11 UNK     1      43.235   3.406  10.499  1.00  0.00     0.084 A 
ATOM      8  C12 UNK     1      41.998   3.397  11.147  1.00  0.00     0.118 A 
ATOM      9  C13 UNK     1      44.455   3.820  11.210  1.00  0.00     0.190 A 
ATOM     10  C14 UNK     1      45.673   3.408   9.143  1.00  0.00     0.090 A 
ATOM     11  C15 UNK     1      45.707   3.795  10.428  1.00  0.00     0.094 A 
ENDROOT
BRANCH   3  12
ATOM     12  O2  UNK     1      39.847   2.220   8.420  1.00  0.00    -0.315 OA
BRANCH  12  13
ATOM     13  C4  UNK     1      39.437   0.862   8.584  1.00  0.00     0.299 C 
ATOM     14  O1  UNK     1      40.513   0.097   9.123  1.00  0.00    -0.340 OA
ATOM     15  C5  UNK     1      40.157  -1.265   9.331  1.00  0.00     0.253 C 
ATOM     16  C3  UNK     1      39.804  -1.946   8.014  1.00  0.00     0.189 C 
ATOM     17  C1  UNK     1      38.711  -1.171   7.278  1.00  0.00     0.183 C 
ATOM     18  C2  UNK     1      39.034   0.322   7.212  1.00  0.00     0.205 C 
BRANCH  15  19
ATOM     19  C6  UNK     1      41.394  -1.857   9.924  1.00  0.00     0.172 C 
ATOM     20  O7  UNK     1      41.821  -1.613  11.043  1.00  0.00    -0.648 OA
BRANCH  19  21
ATOM     21  O6  UNK     1      41.987  -2.704   9.048  1.00  0.00    -0.774 OA
ATOM     22  H10 UNK     1      42.671  -3.259   9.481  1.00  0.00     0.167 HD
ENDBRANCH  19  21
ENDBRANCH  15  19
BRANCH  16  23
ATOM     23  O5  UNK     1      39.335  -3.264   8.292  1.00  0.00    -0.390 OA
ATOM     24  H8  UNK     1      39.868  -3.627   9.019  1.00  0.00     0.210 HD
ENDBRANCH  16  23
BRANCH  17  25
ATOM     25  O3  UNK     1      38.611  -1.697   5.954  1.00  0.00    -0.390 OA
ATOM     26  H6  UNK     1      37.689  -1.594   5.664  1.00  0.00     0.210 HD
ENDBRANCH  17  25
BRANCH  18  27
ATOM     27  O4  UNK     1      37.880   1.037   6.770  1.00  0.00    -0.388 OA
ATOM     28  H7  UNK     1      37.993   1.967   7.030  1.00  0.00     0.210 HD
ENDBRANCH  18  27
ENDBRANCH  12  13
ENDBRANCH   3  12
BRANCH   5  29
ATOM     29  O9  UNK     1      39.644   2.985  11.070  1.00  0.00    -0.356 OA
ATOM     30  H12 UNK     1      39.013   3.486  10.524  1.00  0.00     0.218 HD
ENDBRANCH   5  29
BRANCH   8  31
ATOM     31  O10 UNK     1      41.863   3.768  12.452  1.00  0.00    -0.357 OA
ATOM     32  H13 UNK     1      42.731   3.884  12.868  1.00  0.00     0.217 HD
ENDBRANCH   8  31
BRANCH  10  33
ATOM     33  C16 UNK     1      46.895   3.354   8.315  1.00  0.00    -0.002 A 
ATOM     34  C17 UNK     1      48.039   4.054   8.706  1.00  0.00     0.014 A 
ATOM     35  C19 UNK     1      49.193   4.002   7.924  1.00  0.00     0.001 A 
ATOM     36  C21 UNK     1      49.207   3.249   6.750  1.00  0.00     0.000 A 
ATOM     37  C20 UNK     1      48.066   2.549   6.356  1.00  0.00     0.001 A 
ATOM     38  C18 UNK     1      46.912   2.601   7.138  1.00  0.00     0.014 A 
ENDBRANCH  10  33
TORSDOF 10
ENDMDL
MODEL 4
REMARK VINA RESULT:      -7.0      1.268      1.982
REMARK  10 active torsions:
REMARK  status: ('A' for Active; 'I' for Inactive)
REMARK    1  A    between atoms: O2_2  and  C4_15 
REMARK    2  A    between atoms: O2_2  and  C7_18 
REMARK    3  A    between atoms: O3_3  and  C1_12 
REMARK    4  A    between atoms: O4_4  and  C2_13 
REMARK    5  A    between atoms: O5_5  and  C3_14 
REMARK    6  A    between atoms: O6_6  and  C6_17 
REMARK    7  A    between atoms: O9_9  and  C9_20 
REMARK    8  A    between atoms: O10_10  and  C12_23 
REMARK    9  A    between atoms: C5_16  and  C6_17 
REMARK   10  A    between atoms: C14_25  and  C16_27 
ROOT
ATOM      1  O8  UNK     1      44.136   2.416   7.955  1.00  0.00    -0.309 OA
ATOM      2  O11 UNK     1      42.686   5.381  10.345  1.00  0.00    -0.287 OA
ATOM      3  C7  UNK     1      40.640   1.392   8.064  1.00  0.00     0.110 A 
ATOM      4  C8  UNK     1      42.002   1.421   7.766  1.00  0.00     0.078 A 
ATOM      5  C9  UNK     1      40.080   2.379   8.876  1.00  0.00     0.134 A 
ATOM      6  C10 UNK     1      42.804   2.441   8.282  1.00  0.00     0.096 A 
ATOM      7  C11 UNK     1      42.242   3.425   9.093  1.00  0.00     0.084 A 
ATOM      8  C12 UNK     1      40.878   3.399   9.394  1.00  0.00     0.118 A 
ATOM      9  C13 UNK     1      43.110   4.486   9.625  1.00  0.00     0.190 A 
ATOM     10  C14 UNK     1      44.955   3.420   8.448  1.00  0.00     0.090 A 
ATOM     11  C15 UNK     1      44.535   4.418   9.241  1.00  0.00     0.094 A 
ENDROOT
BRANCH   3  12
ATOM     12  O2  UNK     1      39.865   0.392   7.555  1.00  0.00    -0.315 OA
BRANCH  12  13
ATOM     13  C4  UNK     1      39.345  -0.554   8.490  1.00  0.00     0.299 C 
ATOM     14  O1  UNK     1      40.401  -1.050   9.309  1.00  0.00    -0.340 OA
ATOM     15  C5  UNK     1      39.939  -1.984  10.279  1.00  0.00     0.253 C 
ATOM     16  C3  UNK     1      39.340  -3.216   9.612  1.00  0.00     0.189 C 
ATOM     17  C1  UNK     1      38.240  -2.818   8.628  1.00  0.00     0.183 C 
ATOM     18  C2  UNK     1      38.702  -1.694   7.700  1.00  0.00     0.205 C 
BRANCH  15  19
ATOM     19  C6  UNK     1      41.179  -2.335  11.035  1.00  0.00     0.172 C 
ATOM     20  O7  UNK     1      41.614  -1.718  11.996  1.00  0.00    -0.648 OA
BRANCH  19  21
ATOM     21  O6  UNK     1      41.766  -3.437  10.507  1.00  0.00    -0.774 OA
ATOM     22  H10 UNK     1      42.184  -3.250   9.639  1.00  0.00     0.167 HD
ENDBRANCH  19  21
ENDBRANCH  15  19
BRANCH  16  23
ATOM     23  O5  UNK     1      38.780  -4.055  10.621  1.00  0.00    -0.390 OA
ATOM     24  H8  UNK     1      38.289  -4.770  10.181  1.00  0.00     0.210 HD
ENDBRANCH  16  23
BRANCH  17  25
ATOM     25  O3  UNK     1      37.904  -3.969   7.851  1.00  0.00    -0.390 OA
ATOM     26  H6  UNK     1      37.404  -3.666   7.075  1.00  0.00     0.210 HD
ENDBRANCH  17  25
BRANCH  18  27
ATOM     27  O4  UNK     1      37.578  -1.170   6.993  1.00  0.00    -0.388 OA
ATOM     28  H7  UNK     1      37.157  -0.504   7.561  1.00  0.00     0.210 HD
ENDBRANCH  18  27
ENDBRANCH  12  13
ENDBRANCH   3  12
BRANCH   5  29
ATOM     29  O9  UNK     1      38.746   2.344   9.163  1.00  0.00    -0.356 OA
ATOM     30  H12 UNK     1      38.638   2.080  10.094  1.00  0.00     0.218 HD
ENDBRANCH   5  29
BRANCH   8  31
ATOM     31  O10 UNK     1      40.294   4.345  10.183  1.00  0.00    -0.357 OA
ATOM     32  H13 UNK     1      39.472   4.667   9.783  1.00  0.00     0.217 HD
ENDBRANCH   8  31
BRANCH  10  33
ATOM     33  C16 UNK     1      46.369   3.296   8.039  1.00  0.00    -0.002 A 
ATOM     34  C17 UNK     1      46.723   2.444   6.989  1.00  0.00     0.014 A 
ATOM     35  C19 UNK     1      48.059   2.328   6.602  1.00  0.00     0.001 A 
ATOM     36  C21 UNK     1      49.044   3.061   7.263  1.00  0.00     0.000 A 
ATOM     37  C20 UNK     1      48.694   3.912   8.312  1.00  0.00     0.001 A 
ATOM     38  C18 UNK     1      47.358   4.029   8.698  1.00  0.00     0.014 A 
ENDBRANCH  10  33
TORSDOF 10
ENDMDL
MODEL 5
REMARK VINA RESULT:      -7.0      2.782      3.553
REMARK  10 active torsions:
REMARK  status: ('A' for Active; 'I' for Inactive)
REMARK    1  A    between atoms: O2_2  and  C4_15 
REMARK    2  A    between atoms: O2_2  and  C7_18 
REMARK    3  A    between atoms: O3_3  and  C1_12 
REMARK    4  A    between atoms: O4_4  and  C2_13 
REMARK    5  A    between atoms: O5_5  and  C3_14 
REMARK    6  A    between atoms: O6_6  and  C6_17 
REMARK    7  A    between atoms: O9_9  and  C9_20 
REMARK    8  A    between atoms: O10_10  and  C12_23 
REMARK    9  A    between atoms: C5_16  and  C6_17 
REMARK   10  A    between atoms: C14_25  and  C16_27 
ROOT
ATOM      1  O8  UNK     1      43.592   0.862   8.581  1.00  0.00    -0.309 OA
ATOM      2  O11 UNK     1      41.825   4.346   9.738  1.00  0.00    -0.287 OA
ATOM      3  C7  UNK     1      40.243  -0.404   9.258  1.00  0.00     0.110 A 
ATOM      4  C8  UNK     1      41.590  -0.348   8.899  1.00  0.00     0.078 A 
ATOM      5  C9  UNK     1      39.577   0.754   9.663  1.00  0.00     0.134 A 
ATOM      6  C10 UNK     1      42.270   0.870   8.945  1.00  0.00     0.096 A 
ATOM      7  C11 UNK     1      41.603   2.024   9.350  1.00  0.00     0.084 A 
ATOM      8  C12 UNK     1      40.255   1.973   9.710  1.00  0.00     0.118 A 
ATOM      9  C13 UNK     1      42.345   3.294   9.391  1.00  0.00     0.190 A 
ATOM     10  C14 UNK     1      44.292   2.059   8.610  1.00  0.00     0.090 A 
ATOM     11  C15 UNK     1      43.764   3.234   8.986  1.00  0.00     0.094 A 
ENDROOT
BRANCH   3  12
ATOM     12  O2  UNK     1      39.587  -1.599   9.210  1.00  0.00    -0.315 OA
BRANCH  12  13
ATOM     13  C4  UNK     1      38.657  -1.774   8.140  1.00  0.00     0.299 C 
ATOM     14  O1  UNK     1      37.353  -2.005   8.669  1.00  0.00    -0.340 OA
ATOM     15  C5  UNK     1      36.376  -2.166   7.648  1.00  0.00     0.253 C 
ATOM     16  C3  UNK     1      36.678  -3.387   6.787  1.00  0.00     0.189 C 
ATOM     17  C1  UNK     1      38.096  -3.313   6.221  1.00  0.00     0.183 C 
ATOM     18  C2  UNK     1      39.115  -2.973   7.309  1.00  0.00     0.205 C 
BRANCH  15  19
ATOM     19  C6  UNK     1      35.106  -2.353   8.413  1.00  0.00     0.172 C 
ATOM     20  O7  UNK     1      34.447  -1.452   8.909  1.00  0.00    -0.648 OA
BRANCH  19  21
ATOM     21  O6  UNK     1      34.782  -3.667   8.489  1.00  0.00    -0.774 OA
ATOM     22  H10 UNK     1      33.826  -3.799   8.664  1.00  0.00     0.167 HD
ENDBRANCH  19  21
ENDBRANCH  15  19
BRANCH  16  23
ATOM     23  O5  UNK     1      35.747  -3.428   5.708  1.00  0.00    -0.390 OA
ATOM     24  H8  UNK     1      36.203  -3.126   4.904  1.00  0.00     0.210 HD
ENDBRANCH  16  23
BRANCH  17  25
ATOM     25  O3  UNK     1      38.413  -4.585   5.652  1.00  0.00    -0.390 OA
ATOM     26  H6  UNK     1      38.442  -5.233   6.375  1.00  0.00     0.210 HD
ENDBRANCH  17  25
BRANCH  18  27
ATOM     27  O4  UNK     1      40.365  -2.646   6.702  1.00  0.00    -0.388 OA
ATOM     28  H7  UNK     1      40.989  -2.427   7.414  1.00  0.00     0.210 HD
ENDBRANCH  18  27
ENDBRANCH  12  13
ENDBRANCH   3  12
BRANCH   5  29
ATOM     29  O9  UNK     1      38.259   0.691  10.013  1.00  0.00    -0.356 OA
ATOM     30  H12 UNK     1      38.015  -0.244  10.124  1.00  0.00     0.218 HD
ENDBRANCH   5  29
BRANCH   8  31
ATOM     31  O10 UNK     1      39.571   3.082  10.111  1.00  0.00    -0.357 OA
ATOM     32  H13 UNK     1      39.911   3.874   9.668  1.00  0.00     0.217 HD
ENDBRANCH   8  31
BRANCH  10  33
ATOM     33  C16 UNK     1      45.707   1.936   8.204  1.00  0.00    -0.002 A 
ATOM     34  C17 UNK     1      46.592   1.170   8.967  1.00  0.00     0.014 A 
ATOM     35  C19 UNK     1      47.928   1.054   8.583  1.00  0.00     0.001 A 
ATOM     36  C21 UNK     1      48.383   1.702   7.435  1.00  0.00     0.000 A 
ATOM     37  C20 UNK     1      47.503   2.468   6.671  1.00  0.00     0.001 A 
ATOM     38  C18 UNK     1      46.167   2.584   7.055  1.00  0.00     0.014 A 
ENDBRANCH  10  33
TORSDOF 10
ENDMDL
MODEL 6
REMARK VINA RESULT:      -6.7      5.350      9.286
REMARK  10 active torsions:
REMARK  status: ('A' for Active; 'I' for Inactive)
REMARK    1  A    between atoms: O2_2  and  C4_15 
REMARK    2  A    between atoms: O2_2  and  C7_18 
REMARK    3  A    between atoms: O3_3  and  C1_12 
REMARK    4  A    between atoms: O4_4  and  C2_13 
REMARK    5  A    between atoms: O5_5  and  C3_14 
REMARK    6  A    between atoms: O6_6  and  C6_17 
REMARK    7  A    between atoms: O9_9  and  C9_20 
REMARK    8  A    between atoms: O10_10  and  C12_23 
REMARK    9  A    between atoms: C5_16  and  C6_17 
REMARK   10  A    between atoms: C14_25  and  C16_27 
ROOT
ATOM      1  O8  UNK     1      38.022  -5.231   5.282  1.00  0.00    -0.309 OA
ATOM      2  O11 UNK     1      34.197  -4.129   6.153  1.00  0.00    -0.287 OA
ATOM      3  C7  UNK     1      38.727  -2.205   7.187  1.00  0.00     0.110 A 
ATOM      4  C8  UNK     1      38.902  -3.367   6.436  1.00  0.00     0.078 A 
ATOM      5  C9  UNK     1      37.443  -1.773   7.521  1.00  0.00     0.134 A 
ATOM      6  C10 UNK     1      37.788  -4.098   6.018  1.00  0.00     0.096 A 
ATOM      7  C11 UNK     1      36.506  -3.664   6.353  1.00  0.00     0.084 A 
ATOM      8  C12 UNK     1      36.328  -2.500   7.105  1.00  0.00     0.118 A 
ATOM      9  C13 UNK     1      35.350  -4.451   5.898  1.00  0.00     0.190 A 
ATOM     10  C14 UNK     1      36.935  -5.980   4.860  1.00  0.00     0.090 A 
ATOM     11  C15 UNK     1      35.655  -5.664   5.113  1.00  0.00     0.094 A 
ENDROOT
BRANCH   3  12
ATOM     12  O2  UNK     1      39.822  -1.499   7.590  1.00  0.00    -0.315 OA
BRANCH  12  13
ATOM     13  C4  UNK     1      40.438  -1.915   8.809  1.00  0.00     0.299 C 
ATOM     14  O1  UNK     1      39.437  -2.316   9.742  1.00  0.00    -0.340 OA
ATOM     15  C5  UNK     1      39.993  -2.764  10.973  1.00  0.00     0.253 C 
ATOM     16  C3  UNK     1      40.760  -1.645  11.668  1.00  0.00     0.189 C 
ATOM     17  C1  UNK     1      41.820  -1.056  10.738  1.00  0.00     0.183 C 
ATOM     18  C2  UNK     1      41.239  -0.735   9.361  1.00  0.00     0.205 C 
BRANCH  15  19
ATOM     19  C6  UNK     1      38.792  -3.163  11.767  1.00  0.00     0.172 C 
ATOM     20  O7  UNK     1      38.722  -3.153  12.987  1.00  0.00    -0.648 OA
BRANCH  19  21
ATOM     21  O6  UNK     1      37.781  -3.543  10.948  1.00  0.00    -0.774 OA
ATOM     22  H10 UNK     1      38.111  -3.840  10.073  1.00  0.00     0.167 HD
ENDBRANCH  19  21
ENDBRANCH  15  19
BRANCH  16  23
ATOM     23  O5  UNK     1      41.400  -2.179  12.825  1.00  0.00    -0.390 OA
ATOM     24  H8  UNK     1      41.933  -2.945  12.549  1.00  0.00     0.210 HD
ENDBRANCH  16  23
BRANCH  17  25
ATOM     25  O3  UNK     1      42.318   0.142  11.336  1.00  0.00    -0.390 OA
ATOM     26  H6  UNK     1      42.044   0.888  10.777  1.00  0.00     0.210 HD
ENDBRANCH  17  25
BRANCH  18  27
ATOM     27  O4  UNK     1      42.302  -0.451   8.451  1.00  0.00    -0.388 OA
ATOM     28  H7  UNK     1      43.061  -1.003   8.704  1.00  0.00     0.210 HD
ENDBRANCH  18  27
ENDBRANCH  12  13
ENDBRANCH   3  12
BRANCH   5  29
ATOM     29  O9  UNK     1      37.281  -0.634   8.256  1.00  0.00    -0.356 OA
ATOM     30  H12 UNK     1      36.413  -0.250   8.042  1.00  0.00     0.218 HD
ENDBRANCH   5  29
BRANCH   8  31
ATOM     31  O10 UNK     1      35.090  -2.047   7.450  1.00  0.00    -0.357 OA
ATOM     32  H13 UNK     1      34.996  -1.106   7.236  1.00  0.00     0.217 HD
ENDBRANCH   8  31
BRANCH  10  33
ATOM     33  C16 UNK     1      37.299  -7.175   4.072  1.00  0.00    -0.002 A 
ATOM     34  C17 UNK     1      38.525  -7.811   4.288  1.00  0.00     0.014 A 
ATOM     35  C19 UNK     1      38.869  -8.940   3.544  1.00  0.00     0.001 A 
ATOM     36  C21 UNK     1      37.989  -9.438   2.584  1.00  0.00     0.000 A 
ATOM     37  C20 UNK     1      36.764  -8.806   2.366  1.00  0.00     0.001 A 
ATOM     38  C18 UNK     1      36.420  -7.677   3.110  1.00  0.00     0.014 A 
ENDBRANCH  10  33
TORSDOF 10
ENDMDL
MODEL 7
REMARK VINA RESULT:      -6.7      2.051      3.274
REMARK  10 active torsions:
REMARK  status: ('A' for Active; 'I' for Inactive)
REMARK    1  A    between atoms: O2_2  and  C4_15 
REMARK    2  A    between atoms: O2_2  and  C7_18 
REMARK    3  A    between atoms: O3_3  and  C1_12 
REMARK    4  A    between atoms: O4_4  and  C2_13 
REMARK    5  A    between atoms: O5_5  and  C3_14 
REMARK    6  A    between atoms: O6_6  and  C6_17 
REMARK    7  A    between atoms: O9_9  and  C9_20 
REMARK    8  A    between atoms: O10_10  and  C12_23 
REMARK    9  A    between atoms: C5_16  and  C6_17 
REMARK   10  A    between atoms: C14_25  and  C16_27 
ROOT
ATOM      1  O8  UNK     1      45.319   2.294   9.110  1.00  0.00    -0.309 OA
ATOM      2  O11 UNK     1      44.138   5.294  11.601  1.00  0.00    -0.287 OA
ATOM      3  C7  UNK     1      42.336   0.729  10.501  1.00  0.00     0.110 A 
ATOM      4  C8  UNK     1      43.493   0.940   9.750  1.00  0.00     0.078 A 
ATOM      5  C9  UNK     1      41.877   1.718  11.373  1.00  0.00     0.134 A 
ATOM      6  C10 UNK     1      44.189   2.144   9.873  1.00  0.00     0.096 A 
ATOM      7  C11 UNK     1      43.728   3.129  10.744  1.00  0.00     0.084 A 
ATOM      8  C12 UNK     1      42.571   2.921  11.497  1.00  0.00     0.118 A 
ATOM      9  C13 UNK     1      44.483   4.387  10.855  1.00  0.00     0.190 A 
ATOM     10  C14 UNK     1      46.028   3.482   9.206  1.00  0.00     0.090 A 
ATOM     11  C15 UNK     1      45.689   4.501  10.010  1.00  0.00     0.094 A 
ENDROOT
BRANCH   3  12
ATOM     12  O2  UNK     1      41.663  -0.450  10.374  1.00  0.00    -0.315 OA
BRANCH  12  13
ATOM     13  C4  UNK     1      41.183  -0.774   9.069  1.00  0.00     0.299 C 
ATOM     14  O1  UNK     1      40.198   0.176   8.668  1.00  0.00    -0.340 OA
ATOM     15  C5  UNK     1      39.696  -0.083   7.362  1.00  0.00     0.253 C 
ATOM     16  C3  UNK     1      38.994  -1.434   7.303  1.00  0.00     0.189 C 
ATOM     17  C1  UNK     1      39.917  -2.548   7.796  1.00  0.00     0.183 C 
ATOM     18  C2  UNK     1      40.578  -2.178   9.124  1.00  0.00     0.205 C 
BRANCH  15  19
ATOM     19  C6  UNK     1      38.729   1.034   7.138  1.00  0.00     0.172 C 
ATOM     20  O7  UNK     1      39.031   2.162   6.777  1.00  0.00    -0.648 OA
BRANCH  19  21
ATOM     21  O6  UNK     1      37.462   0.627   7.394  1.00  0.00    -0.774 OA
ATOM     22  H10 UNK     1      36.798   1.183   6.933  1.00  0.00     0.167 HD
ENDBRANCH  19  21
ENDBRANCH  15  19
BRANCH  16  23
ATOM     23  O5  UNK     1      38.625  -1.699   5.950  1.00  0.00    -0.390 OA
ATOM     24  H8  UNK     1      38.896  -2.608   5.736  1.00  0.00     0.210 HD
ENDBRANCH  16  23
BRANCH  17  25
ATOM     25  O3  UNK     1      39.133  -3.730   7.966  1.00  0.00    -0.390 OA
ATOM     26  H6  UNK     1      38.324  -3.481   8.442  1.00  0.00     0.210 HD
ENDBRANCH  17  25
BRANCH  18  27
ATOM     27  O4  UNK     1      41.625  -3.106   9.407  1.00  0.00    -0.388 OA
ATOM     28  H7  UNK     1      41.311  -3.990   9.156  1.00  0.00     0.210 HD
ENDBRANCH  18  27
ENDBRANCH  12  13
ENDBRANCH   3  12
BRANCH   5  29
ATOM     29  O9  UNK     1      40.744   1.503  12.104  1.00  0.00    -0.356 OA
ATOM     30  H12 UNK     1      40.847   1.942  12.966  1.00  0.00     0.218 HD
ENDBRANCH   5  29
BRANCH   8  31
ATOM     31  O10 UNK     1      42.091   3.862  12.359  1.00  0.00    -0.357 OA
ATOM     32  H13 UNK     1      42.334   4.753  12.065  1.00  0.00     0.217 HD
ENDBRANCH   8  31
BRANCH  10  33
ATOM     33  C16 UNK     1      47.228   3.536   8.346  1.00  0.00    -0.002 A 
ATOM     34  C17 UNK     1      48.340   4.284   8.741  1.00  0.00     0.014 A 
ATOM     35  C19 UNK     1      49.474   4.333   7.929  1.00  0.00     0.001 A 
ATOM     36  C21 UNK     1      49.500   3.635   6.722  1.00  0.00     0.000 A 
ATOM     37  C20 UNK     1      48.391   2.888   6.325  1.00  0.00     0.001 A 
ATOM     38  C18 UNK     1      47.257   2.838   7.136  1.00  0.00     0.014 A 
ENDBRANCH  10  33
TORSDOF 10
ENDMDL
MODEL 8
REMARK VINA RESULT:      -6.7      2.049      3.190
REMARK  10 active torsions:
REMARK  status: ('A' for Active; 'I' for Inactive)
REMARK    1  A    between atoms: O2_2  and  C4_15 
REMARK    2  A    between atoms: O2_2  and  C7_18 
REMARK    3  A    between atoms: O3_3  and  C1_12 
REMARK    4  A    between atoms: O4_4  and  C2_13 
REMARK    5  A    between atoms: O5_5  and  C3_14 
REMARK    6  A    between atoms: O6_6  and  C6_17 
REMARK    7  A    between atoms: O9_9  and  C9_20 
REMARK    8  A    between atoms: O10_10  and  C12_23 
REMARK    9  A    between atoms: C5_16  and  C6_17 
REMARK   10  A    between atoms: C14_25  and  C16_27 
ROOT
ATOM      1  O8  UNK     1      45.595   3.138   9.135  1.00  0.00    -0.309 OA
ATOM      2  O11 UNK     1      43.636   6.667   9.692  1.00  0.00    -0.287 OA
ATOM      3  C7  UNK     1      42.282   1.828   9.903  1.00  0.00     0.110 A 
ATOM      4  C8  UNK     1      43.637   1.894   9.578  1.00  0.00     0.078 A 
ATOM      5  C9  UNK     1      41.552   3.000  10.106  1.00  0.00     0.134 A 
ATOM      6  C10 UNK     1      44.261   3.137   9.456  1.00  0.00     0.096 A 
ATOM      7  C11 UNK     1      43.530   4.306   9.659  1.00  0.00     0.084 A 
ATOM      8  C12 UNK     1      42.173   4.244   9.985  1.00  0.00     0.118 A 
ATOM      9  C13 UNK     1      44.214   5.601   9.526  1.00  0.00     0.190 A 
ATOM     10  C14 UNK     1      46.240   4.358   9.000  1.00  0.00     0.090 A 
ATOM     11  C15 UNK     1      45.648   5.550   9.175  1.00  0.00     0.094 A 
ENDROOT
BRANCH   3  12
ATOM     12  O2  UNK     1      41.681   0.609  10.020  1.00  0.00    -0.315 OA
BRANCH  12  13
ATOM     13  C4  UNK     1      41.185   0.023   8.816  1.00  0.00     0.299 C 
ATOM     14  O1  UNK     1      39.954   0.642   8.450  1.00  0.00    -0.340 OA
ATOM     15  C5  UNK     1      39.421   0.113   7.242  1.00  0.00     0.253 C 
ATOM     16  C3  UNK     1      39.093  -1.368   7.390  1.00  0.00     0.189 C 
ATOM     17  C1  UNK     1      40.316  -2.148   7.869  1.00  0.00     0.183 C 
ATOM     18  C2  UNK     1      40.975  -1.470   9.070  1.00  0.00     0.205 C 
BRANCH  15  19
ATOM     19  C6  UNK     1      38.179   0.918   7.034  1.00  0.00     0.172 C 
ATOM     20  O7  UNK     1      37.159   0.819   7.699  1.00  0.00    -0.648 OA
BRANCH  19  21
ATOM     21  O6  UNK     1      38.334   1.778   5.998  1.00  0.00    -0.774 OA
ATOM     22  H10 UNK     1      39.246   1.759   5.638  1.00  0.00     0.167 HD
ENDBRANCH  19  21
ENDBRANCH  15  19
BRANCH  16  23
ATOM     23  O5  UNK     1      38.684  -1.874   6.120  1.00  0.00    -0.390 OA
ATOM     24  H8  UNK     1      37.717  -1.981   6.134  1.00  0.00     0.210 HD
ENDBRANCH  16  23
BRANCH  17  25
ATOM     25  O3  UNK     1      39.887  -3.460   8.238  1.00  0.00    -0.390 OA
ATOM     26  H6  UNK     1      40.064  -3.572   9.187  1.00  0.00     0.210 HD
ENDBRANCH  17  25
BRANCH  18  27
ATOM     27  O4  UNK     1      42.250  -2.067   9.310  1.00  0.00    -0.388 OA
ATOM     28  H7  UNK     1      42.913  -1.357   9.306  1.00  0.00     0.210 HD
ENDBRANCH  18  27
ENDBRANCH  12  13
ENDBRANCH   3  12
BRANCH   5  29
ATOM     29  O9  UNK     1      40.227   2.927  10.424  1.00  0.00    -0.356 OA
ATOM     30  H12 UNK     1      39.849   2.143   9.989  1.00  0.00     0.218 HD
ENDBRANCH   5  29
BRANCH   8  31
ATOM     31  O10 UNK     1      41.428   5.366  10.190  1.00  0.00    -0.357 OA
ATOM     32  H13 UNK     1      41.597   6.023   9.498  1.00  0.00     0.217 HD
ENDBRANCH   8  31
BRANCH  10  33
ATOM     33  C16 UNK     1      47.672   4.245   8.658  1.00  0.00    -0.002 A 
ATOM     34  C17 UNK     1      48.622   4.993   9.359  1.00  0.00     0.014 A 
ATOM     35  C19 UNK     1      49.975   4.884   9.036  1.00  0.00     0.001 A 
ATOM     36  C21 UNK     1      50.383   4.028   8.014  1.00  0.00     0.000 A 
ATOM     37  C20 UNK     1      49.437   3.280   7.312  1.00  0.00     0.001 A 
ATOM     38  C18 UNK     1      48.084   3.388   7.635  1.00  0.00     0.014 A 
ENDBRANCH  10  33
TORSDOF 10
ENDMDL
MODEL 9
REMARK VINA RESULT:      -6.7      2.571      4.988
REMARK  10 active torsions:
REMARK  status: ('A' for Active; 'I' for Inactive)
REMARK    1  A    between atoms: O2_2  and  C4_15 
REMARK    2  A    between atoms: O2_2  and  C7_18 
REMARK    3  A    between atoms: O3_3  and  C1_12 
REMARK    4  A    between atoms: O4_4  and  C2_13 
REMARK    5  A    between atoms: O5_5  and  C3_14 
REMARK    6  A    between atoms: O6_6  and  C6_17 
REMARK    7  A    between atoms: O9_9  and  C9_20 
REMARK    8  A    between atoms: O10_10  and  C12_23 
REMARK    9  A    between atoms: C5_16  and  C6_17 
REMARK   10  A    between atoms: C14_25  and  C16_27 
ROOT
ATOM      1  O8  UNK     1      42.854   4.523  10.552  1.00  0.00    -0.309 OA
ATOM      2  O11 UNK     1      46.702   3.868   9.384  1.00  0.00    -0.287 OA
ATOM      3  C7  UNK     1      42.230   2.140   7.867  1.00  0.00     0.110 A 
ATOM      4  C8  UNK     1      42.025   3.032   8.919  1.00  0.00     0.078 A 
ATOM      5  C9  UNK     1      43.524   1.870   7.419  1.00  0.00     0.134 A 
ATOM      6  C10 UNK     1      43.118   3.655   9.524  1.00  0.00     0.096 A 
ATOM      7  C11 UNK     1      44.409   3.384   9.074  1.00  0.00     0.084 A 
ATOM      8  C12 UNK     1      44.619   2.491   8.021  1.00  0.00     0.118 A 
ATOM      9  C13 UNK     1      45.542   4.056   9.728  1.00  0.00     0.190 A 
ATOM     10  C14 UNK     1      43.921   5.151  11.176  1.00  0.00     0.090 A 
ATOM     11  C15 UNK     1      45.206   4.978  10.832  1.00  0.00     0.094 A 
ENDROOT
BRANCH   3  12
ATOM     12  O2  UNK     1      41.155   1.536   7.283  1.00  0.00    -0.315 OA
BRANCH  12  13
ATOM     13  C4  UNK     1      40.333   0.734   8.132  1.00  0.00     0.299 C 
ATOM     14  O1  UNK     1      41.105  -0.330   8.684  1.00  0.00    -0.340 OA
ATOM     15  C5  UNK     1      40.343  -1.153   9.560  1.00  0.00     0.253 C 
ATOM     16  C3  UNK     1      39.202  -1.835   8.815  1.00  0.00     0.189 C 
ATOM     17  C1  UNK     1      38.334  -0.804   8.093  1.00  0.00     0.183 C 
ATOM     18  C2  UNK     1      39.186   0.177   7.289  1.00  0.00     0.205 C 
BRANCH  15  19
ATOM     19  C6  UNK     1      41.341  -2.155  10.043  1.00  0.00     0.172 C 
ATOM     20  O7  UNK     1      41.618  -2.361  11.215  1.00  0.00    -0.648 OA
BRANCH  19  21
ATOM     21  O6  UNK     1      41.905  -2.811   8.999  1.00  0.00    -0.774 OA
ATOM     22  H10 UNK     1      42.407  -2.204   8.413  1.00  0.00     0.167 HD
ENDBRANCH  19  21
ENDBRANCH  15  19
BRANCH  16  23
ATOM     23  O5  UNK     1      38.399  -2.542   9.758  1.00  0.00    -0.390 OA
ATOM     24  H8  UNK     1      38.410  -3.485   9.518  1.00  0.00     0.210 HD
ENDBRANCH  16  23
BRANCH  17  25
ATOM     25  O3  UNK     1      37.455  -1.506   7.212  1.00  0.00    -0.390 OA
ATOM     26  H6  UNK     1      37.995  -1.903   6.510  1.00  0.00     0.210 HD
ENDBRANCH  17  25
BRANCH  18  27
ATOM     27  O4  UNK     1      38.373   1.270   6.861  1.00  0.00    -0.388 OA
ATOM     28  H7  UNK     1      38.649   2.056   7.362  1.00  0.00     0.210 HD
ENDBRANCH  18  27
ENDBRANCH  12  13
ENDBRANCH   3  12
BRANCH   5  29
ATOM     29  O9  UNK     1      43.716   0.996   6.388  1.00  0.00    -0.356 OA
ATOM     30  H12 UNK     1      44.072   0.166   6.751  1.00  0.00     0.218 HD
ENDBRANCH   5  29
BRANCH   8  31
ATOM     31  O10 UNK     1      45.867   2.203   7.556  1.00  0.00    -0.357 OA
ATOM     32  H13 UNK     1      46.144   2.850   6.890  1.00  0.00     0.217 HD
ENDBRANCH   8  31
BRANCH  10  33
ATOM     33  C16 UNK     1      43.524   6.066  12.266  1.00  0.00    -0.002 A 
ATOM     34  C17 UNK     1      43.458   5.602  13.583  1.00  0.00     0.014 A 
ATOM     35  C19 UNK     1      43.084   6.467  14.612  1.00  0.00     0.001 A 
ATOM     36  C21 UNK     1      42.777   7.797  14.328  1.00  0.00     0.000 A 
ATOM     37  C20 UNK     1      42.842   8.264  13.015  1.00  0.00     0.001 A 
ATOM     38  C18 UNK     1      43.216   7.399  11.986  1.00  0.00     0.014 A 
ENDBRANCH  10  33
TORSDOF 10
ENDMDL
MODEL 10
REMARK VINA RESULT:      -6.7      2.599      3.891
REMARK  10 active torsions:
REMARK  status: ('A' for Active; 'I' for Inactive)
REMARK    1  A    between atoms: O2_2  and  C4_15 
REMARK    2  A    between atoms: O2_2  and  C7_18 
REMARK    3  A    between atoms: O3_3  and  C1_12 
REMARK    4  A    between atoms: O4_4  and  C2_13 
REMARK    5  A    between atoms: O5_5  and  C3_14 
REMARK    6  A    between atoms: O6_6  and  C6_17 
REMARK    7  A    between atoms: O9_9  and  C9_20 
REMARK    8  A    between atoms: O10_10  and  C12_23 
REMARK    9  A    between atoms: C5_16  and  C6_17 
REMARK   10  A    between atoms: C14_25  and  C16_27 
ROOT
ATOM      1  O8  UNK     1      43.272   1.716   8.472  1.00  0.00    -0.309 OA
ATOM      2  O11 UNK     1      42.758   3.519  12.090  1.00  0.00    -0.287 OA
ATOM      3  C7  UNK     1      39.639   1.525   8.686  1.00  0.00     0.110 A 
ATOM      4  C8  UNK     1      40.947   1.394   8.217  1.00  0.00     0.078 A 
ATOM      5  C9  UNK     1      39.394   2.134   9.917  1.00  0.00     0.134 A 
ATOM      6  C10 UNK     1      42.010   1.874   8.984  1.00  0.00     0.096 A 
ATOM      7  C11 UNK     1      41.762   2.482  10.213  1.00  0.00     0.084 A 
ATOM      8  C12 UNK     1      40.454   2.615  10.686  1.00  0.00     0.118 A 
ATOM      9  C13 UNK     1      42.901   2.978  11.001  1.00  0.00     0.190 A 
ATOM     10  C14 UNK     1      44.347   2.191   9.208  1.00  0.00     0.090 A 
ATOM     11  C15 UNK     1      44.239   2.787  10.406  1.00  0.00     0.094 A 
ENDROOT
BRANCH   3  12
ATOM     12  O2  UNK     1      38.607   1.053   7.929  1.00  0.00    -0.315 OA
BRANCH  12  13
ATOM     13  C4  UNK     1      38.142  -0.263   8.232  1.00  0.00     0.299 C 
ATOM     14  O1  UNK     1      38.677  -1.191   7.292  1.00  0.00    -0.340 OA
ATOM     15  C5  UNK     1      38.265  -2.528   7.557  1.00  0.00     0.253 C 
ATOM     16  C3  UNK     1      36.752  -2.668   7.438  1.00  0.00     0.189 C 
ATOM     17  C1  UNK     1      36.042  -1.657   8.338  1.00  0.00     0.183 C 
ATOM     18  C2  UNK     1      36.615  -0.251   8.159  1.00  0.00     0.205 C 
BRANCH  15  19
ATOM     19  C6  UNK     1      38.961  -3.318   6.496  1.00  0.00     0.172 C 
ATOM     20  O7  UNK     1      38.453  -4.220   5.847  1.00  0.00    -0.648 OA
BRANCH  19  21
ATOM     21  O6  UNK     1      40.242  -2.900   6.351  1.00  0.00    -0.774 OA
ATOM     22  H10 UNK     1      40.481  -2.772   5.408  1.00  0.00     0.167 HD
ENDBRANCH  19  21
ENDBRANCH  15  19
BRANCH  16  23
ATOM     23  O5  UNK     1      36.383  -3.987   7.836  1.00  0.00    -0.390 OA
ATOM     24  H8  UNK     1      36.969  -4.615   7.380  1.00  0.00     0.210 HD
ENDBRANCH  16  23
BRANCH  17  25
ATOM     25  O3  UNK     1      34.656  -1.655   7.992  1.00  0.00    -0.390 OA
ATOM     26  H6  UNK     1      34.562  -1.184   7.148  1.00  0.00     0.210 HD
ENDBRANCH  17  25
BRANCH  18  27
ATOM     27  O4  UNK     1      36.123   0.597   9.197  1.00  0.00    -0.388 OA
ATOM     28  H7  UNK     1      36.091   1.502   8.847  1.00  0.00     0.210 HD
ENDBRANCH  18  27
ENDBRANCH  12  13
ENDBRANCH   3  12
BRANCH   5  29
ATOM     29  O9  UNK     1      38.112   2.258  10.368  1.00  0.00    -0.356 OA
ATOM     30  H12 UNK     1      37.890   1.466  10.887  1.00  0.00     0.218 HD
ENDBRANCH   5  29
BRANCH   8  31
ATOM     31  O10 UNK     1      40.175   3.204  11.883  1.00  0.00    -0.357 OA
ATOM     32  H13 UNK     1      40.562   4.092  11.928  1.00  0.00     0.217 HD
ENDBRANCH   8  31
BRANCH  10  33
ATOM     33  C16 UNK     1      45.659   1.965   8.568  1.00  0.00    -0.002 A 
ATOM     34  C17 UNK     1      46.601   1.128   9.173  1.00  0.00     0.014 A 
ATOM     35  C19 UNK     1      47.839   0.915   8.568  1.00  0.00     0.001 A 
ATOM     36  C21 UNK     1      48.140   1.536   7.356  1.00  0.00     0.000 A 
ATOM     37  C20 UNK     1      47.202   2.372   6.749  1.00  0.00     0.001 A 
ATOM     38  C18 UNK     1      45.964   2.585   7.354  1.00  0.00     0.014 A 
ENDBRANCH  10  33
TORSDOF 10
ENDMDL
MODEL 11
REMARK VINA RESULT:      -6.7      1.656      2.806
REMARK  10 active torsions:
REMARK  status: ('A' for Active; 'I' for Inactive)
REMARK    1  A    between atoms: O2_2  and  C4_15 
REMARK    2  A    between atoms: O2_2  and  C7_18 
REMARK    3  A    between atoms: O3_3  and  C1_12 
REMARK    4  A    between atoms: O4_4  and  C2_13 
REMARK    5  A    between atoms: O5_5  and  C3_14 
REMARK    6  A    between atoms: O6_6  and  C6_17 
REMARK    7  A    between atoms: O9_9  and  C9_20 
REMARK    8  A    between atoms: O10_10  and  C12_23 
REMARK    9  A    between atoms: C5_16  and  C6_17 
REMARK   10  A    between atoms: C14_25  and  C16_27 
ROOT
ATOM      1  O8  UNK     1      44.996   2.808   9.522  1.00  0.00    -0.309 OA
ATOM      2  O11 UNK     1      43.803   6.703   9.420  1.00  0.00    -0.287 OA
ATOM      3  C7  UNK     1      41.437   2.323  10.132  1.00  0.00     0.110 A 
ATOM      4  C8  UNK     1      42.793   2.065   9.933  1.00  0.00     0.078 A 
ATOM      5  C9  UNK     1      40.962   3.636  10.108  1.00  0.00     0.134 A 
ATOM      6  C10 UNK     1      43.675   3.124   9.710  1.00  0.00     0.096 A 
ATOM      7  C11 UNK     1      43.199   4.433   9.687  1.00  0.00     0.084 A 
ATOM      8  C12 UNK     1      41.841   4.696   9.885  1.00  0.00     0.118 A 
ATOM      9  C13 UNK     1      44.151   5.530   9.451  1.00  0.00     0.190 A 
ATOM     10  C14 UNK     1      45.895   3.839   9.290  1.00  0.00     0.090 A 
ATOM     11  C15 UNK     1      45.560   5.138   9.250  1.00  0.00     0.094 A 
ENDROOT
BRANCH   3  12
ATOM     12  O2  UNK     1      40.583   1.282  10.350  1.00  0.00    -0.315 OA
BRANCH  12  13
ATOM     13  C4  UNK     1      41.131  -0.031  10.225  1.00  0.00     0.299 C 
ATOM     14  O1  UNK     1      40.381  -0.776   9.269  1.00  0.00    -0.340 OA
ATOM     15  C5  UNK     1      40.895  -2.091   9.083  1.00  0.00     0.253 C 
ATOM     16  C3  UNK     1      40.811  -2.898  10.373  1.00  0.00     0.189 C 
ATOM     17  C1  UNK     1      41.507  -2.164  11.519  1.00  0.00     0.183 C 
ATOM     18  C2  UNK     1      41.063  -0.703  11.596  1.00  0.00     0.205 C 
BRANCH  15  19
ATOM     19  C6  UNK     1      40.000  -2.664   8.034  1.00  0.00     0.172 C 
ATOM     20  O7  UNK     1      38.929  -3.213   8.247  1.00  0.00    -0.648 OA
BRANCH  19  21
ATOM     21  O6  UNK     1      40.539  -2.497   6.801  1.00  0.00    -0.774 OA
ATOM     22  H10 UNK     1      40.170  -1.712   6.343  1.00  0.00     0.167 HD
ENDBRANCH  19  21
ENDBRANCH  15  19
BRANCH  16  23
ATOM     23  O5  UNK     1      41.452  -4.156  10.168  1.00  0.00    -0.390 OA
ATOM     24  H8  UNK     1      42.413  -4.012  10.191  1.00  0.00     0.210 HD
ENDBRANCH  16  23
BRANCH  17  25
ATOM     25  O3  UNK     1      41.172  -2.829  12.738  1.00  0.00    -0.390 OA
ATOM     26  H6  UNK     1      41.851  -3.503  12.903  1.00  0.00     0.210 HD
ENDBRANCH  17  25
BRANCH  18  27
ATOM     27  O4  UNK     1      41.925   0.007  12.486  1.00  0.00    -0.388 OA
ATOM     28  H7  UNK     1      42.832  -0.078  12.149  1.00  0.00     0.210 HD
ENDBRANCH  18  27
ENDBRANCH  12  13
ENDBRANCH   3  12
BRANCH   5  29
ATOM     29  O9  UNK     1      39.633   3.879  10.304  1.00  0.00    -0.356 OA
ATOM     30  H12 UNK     1      39.545   4.634  10.912  1.00  0.00     0.218 HD
ENDBRANCH   5  29
BRANCH   8  31
ATOM     31  O10 UNK     1      41.340   5.963   9.869  1.00  0.00    -0.357 OA
ATOM     32  H13 UNK     1      41.859   6.530   9.279  1.00  0.00     0.217 HD
ENDBRANCH   8  31
BRANCH  10  33
ATOM     33  C16 UNK     1      47.290   3.389   9.105  1.00  0.00    -0.002 A 
ATOM     34  C17 UNK     1      47.651   2.077   9.421  1.00  0.00     0.014 A 
ATOM     35  C19 UNK     1      48.968   1.652   9.246  1.00  0.00     0.001 A 
ATOM     36  C21 UNK     1      49.927   2.537   8.754  1.00  0.00     0.000 A 
ATOM     37  C20 UNK     1      49.570   3.848   8.438  1.00  0.00     0.001 A 
ATOM     38  C18 UNK     1      48.253   4.273   8.614  1.00  0.00     0.014 A 
ENDBRANCH  10  33
TORSDOF 10
ENDMDL
MODEL 12
REMARK VINA RESULT:      -6.6      2.562      8.094
REMARK  10 active torsions:
REMARK  status: ('A' for Active; 'I' for Inactive)
REMARK    1  A    between atoms: O2_2  and  C4_15 
REMARK    2  A    between atoms: O2_2  and  C7_18 
REMARK    3  A    between atoms: O3_3  and  C1_12 
REMARK    4  A    between atoms: O4_4  and  C2_13 
REMARK    5  A    between atoms: O5_5  and  C3_14 
REMARK    6  A    between atoms: O6_6  and  C6_17 
REMARK    7  A    between atoms: O9_9  and  C9_20 
REMARK    8  A    between atoms: O10_10  and  C12_23 
REMARK    9  A    between atoms: C5_16  and  C6_17 
REMARK   10  A    between atoms: C14_25  and  C16_27 
ROOT
ATOM      1  O8  UNK     1      39.078  -1.203  11.172  1.00  0.00    -0.309 OA
ATOM      2  O11 UNK     1      38.340  -3.601   7.961  1.00  0.00    -0.287 OA
ATOM      3  C7  UNK     1      39.152   1.327   8.550  1.00  0.00     0.110 A 
ATOM      4  C8  UNK     1      39.207   0.717   9.804  1.00  0.00     0.078 A 
ATOM      5  C9  UNK     1      38.901   0.563   7.410  1.00  0.00     0.134 A 
ATOM      6  C10 UNK     1      39.011  -0.661   9.914  1.00  0.00     0.096 A 
ATOM      7  C11 UNK     1      38.761  -1.421   8.774  1.00  0.00     0.084 A 
ATOM      8  C12 UNK     1      38.705  -0.814   7.517  1.00  0.00     0.118 A 
ATOM      9  C13 UNK     1      38.560  -2.871   8.919  1.00  0.00     0.190 A 
ATOM     10  C14 UNK     1      38.880  -2.568  11.313  1.00  0.00     0.090 A 
ATOM     11  C15 UNK     1      38.638  -3.407  10.293  1.00  0.00     0.094 A 
ENDROOT
BRANCH   3  12
ATOM     12  O2  UNK     1      39.344   2.674   8.453  1.00  0.00    -0.315 OA
BRANCH  12  13
ATOM     13  C4  UNK     1      40.697   3.121   8.351  1.00  0.00     0.299 C 
ATOM     14  O1  UNK     1      41.535   2.033   7.968  1.00  0.00    -0.340 OA
ATOM     15  C5  UNK     1      42.897   2.423   7.827  1.00  0.00     0.253 C 
ATOM     16  C3  UNK     1      43.464   2.915   9.154  1.00  0.00     0.189 C 
ATOM     17  C1  UNK     1      42.601   4.037   9.730  1.00  0.00     0.183 C 
ATOM     18  C2  UNK     1      41.119   3.662   9.718  1.00  0.00     0.205 C 
BRANCH  15  19
ATOM     19  C6  UNK     1      43.571   1.164   7.391  1.00  0.00     0.172 C 
ATOM     20  O7  UNK     1      44.560   1.109   6.675  1.00  0.00    -0.648 OA
BRANCH  19  21
ATOM     21  O6  UNK     1      42.934   0.080   7.896  1.00  0.00    -0.774 OA
ATOM     22  H10 UNK     1      42.549   0.259   8.780  1.00  0.00     0.167 HD
ENDBRANCH  19  21
ENDBRANCH  15  19
BRANCH  16  23
ATOM     23  O5  UNK     1      44.784   3.411   8.930  1.00  0.00    -0.390 OA
ATOM     24  H8  UNK     1      44.914   4.189   9.498  1.00  0.00     0.210 HD
ENDBRANCH  16  23
BRANCH  17  25
ATOM     25  O3  UNK     1      43.021   4.272  11.075  1.00  0.00    -0.390 OA
ATOM     26  H6  UNK     1      42.277   4.675  11.552  1.00  0.00     0.210 HD
ENDBRANCH  17  25
BRANCH  18  27
ATOM     27  O4  UNK     1      40.334   4.821  10.001  1.00  0.00    -0.388 OA
ATOM     28  H7  UNK     1      40.671   5.547   9.451  1.00  0.00     0.210 HD
ENDBRANCH  18  27
ENDBRANCH  12  13
ENDBRANCH   3  12
BRANCH   5  29
ATOM     29  O9  UNK     1      38.848   1.167   6.187  1.00  0.00    -0.356 OA
ATOM     30  H12 UNK     1      38.326   0.605   5.588  1.00  0.00     0.218 HD
ENDBRANCH   5  29
BRANCH   8  31
ATOM     31  O10 UNK     1      38.463  -1.527   6.381  1.00  0.00    -0.357 OA
ATOM     32  H13 UNK     1      39.261  -1.994   6.091  1.00  0.00     0.217 HD
ENDBRANCH   8  31
BRANCH  10  33
ATOM     33  C16 UNK     1      38.978  -3.048  12.707  1.00  0.00    -0.002 A 
ATOM     34  C17 UNK     1      37.921  -3.760  13.280  1.00  0.00     0.014 A 
ATOM     35  C19 UNK     1      38.014  -4.214  14.596  1.00  0.00     0.001 A 
ATOM     36  C21 UNK     1      39.164  -3.958  15.343  1.00  0.00     0.000 A 
ATOM     37  C20 UNK     1      40.221  -3.247  14.774  1.00  0.00     0.001 A 
ATOM     38  C18 UNK     1      40.128  -2.794  13.458  1.00  0.00     0.014 A 
ENDBRANCH  10  33
TORSDOF 10
ENDMDL
MODEL 13
REMARK VINA RESULT:      -6.6      5.918     10.035
REMARK  10 active torsions:
REMARK  status: ('A' for Active; 'I' for Inactive)
REMARK    1  A    between atoms: O2_2  and  C4_15 
REMARK    2  A    between atoms: O2_2  and  C7_18 
REMARK    3  A    between atoms: O3_3  and  C1_12 
REMARK    4  A    between atoms: O4_4  and  C2_13 
REMARK    5  A    between atoms: O5_5  and  C3_14 
REMARK    6  A    between atoms: O6_6  and  C6_17 
REMARK    7  A    between atoms: O9_9  and  C9_20 
REMARK    8  A    between atoms: O10_10  and  C12_23 
REMARK    9  A    between atoms: C5_16  and  C6_17 
REMARK   10  A    between atoms: C14_25  and  C16_27 
ROOT
ATOM      1  O8  UNK     1      37.115  -5.502   5.339  1.00  0.00    -0.309 OA
ATOM      2  O11 UNK     1      33.138  -5.994   6.075  1.00  0.00    -0.287 OA
ATOM      3  C7  UNK     1      36.471  -2.364   7.075  1.00  0.00     0.110 A 
ATOM      4  C8  UNK     1      37.127  -3.391   6.396  1.00  0.00     0.078 A 
ATOM      5  C9  UNK     1      35.109  -2.470   7.360  1.00  0.00     0.134 A 
ATOM      6  C10 UNK     1      36.417  -4.526   6.003  1.00  0.00     0.096 A 
ATOM      7  C11 UNK     1      35.057  -4.630   6.288  1.00  0.00     0.084 A 
ATOM      8  C12 UNK     1      34.396  -3.604   6.968  1.00  0.00     0.118 A 
ATOM      9  C13 UNK     1      34.333  -5.837   5.860  1.00  0.00     0.190 A 
ATOM     10  C14 UNK     1      36.437  -6.645   4.942  1.00  0.00     0.090 A 
ATOM     11  C15 UNK     1      35.129  -6.859   5.153  1.00  0.00     0.094 A 
ENDROOT
BRANCH   3  12
ATOM     12  O2  UNK     1      37.174  -1.258   7.456  1.00  0.00    -0.315 OA
BRANCH  12  13
ATOM     13  C4  UNK     1      38.589  -1.411   7.576  1.00  0.00     0.299 C 
ATOM     14  O1  UNK     1      38.895  -2.124   8.772  1.00  0.00    -0.340 OA
ATOM     15  C5  UNK     1      40.294  -2.328   8.937  1.00  0.00     0.253 C 
ATOM     16  C3  UNK     1      41.029  -0.999   9.066  1.00  0.00     0.189 C 
ATOM     17  C1  UNK     1      40.716  -0.088   7.880  1.00  0.00     0.183 C 
ATOM     18  C2  UNK     1      39.212  -0.015   7.614  1.00  0.00     0.205 C 
BRANCH  15  19
ATOM     19  C6  UNK     1      40.380  -3.112  10.205  1.00  0.00     0.172 C 
ATOM     20  O7  UNK     1      39.433  -3.381  10.929  1.00  0.00    -0.648 OA
BRANCH  19  21
ATOM     21  O6  UNK     1      41.659  -3.488  10.450  1.00  0.00    -0.774 OA
ATOM     22  H10 UNK     1      42.290  -3.071   9.825  1.00  0.00     0.167 HD
ENDBRANCH  19  21
ENDBRANCH  15  19
BRANCH  16  23
ATOM     23  O5  UNK     1      42.432  -1.254   9.100  1.00  0.00    -0.390 OA
ATOM     24  H8  UNK     1      42.677  -1.474  10.015  1.00  0.00     0.210 HD
ENDBRANCH  16  23
BRANCH  17  25
ATOM     25  O3  UNK     1      41.210   1.218   8.182  1.00  0.00    -0.390 OA
ATOM     26  H6  UNK     1      41.222   1.313   9.148  1.00  0.00     0.210 HD
ENDBRANCH  17  25
BRANCH  18  27
ATOM     27  O4  UNK     1      38.983   0.612   6.352  1.00  0.00    -0.388 OA
ATOM     28  H7  UNK     1      39.806   0.551   5.840  1.00  0.00     0.210 HD
ENDBRANCH  18  27
ENDBRANCH  12  13
ENDBRANCH   3  12
BRANCH   5  29
ATOM     29  O9  UNK     1      34.474  -1.460   8.024  1.00  0.00    -0.356 OA
ATOM     30  H12 UNK     1      34.707  -0.617   7.598  1.00  0.00     0.218 HD
ENDBRANCH   5  29
BRANCH   8  31
ATOM     31  O10 UNK     1      33.068  -3.671   7.264  1.00  0.00    -0.357 OA
ATOM     32  H13 UNK     1      32.756  -4.589   7.242  1.00  0.00     0.217 HD
ENDBRANCH   8  31
BRANCH  10  33
ATOM     33  C16 UNK     1      37.281  -7.627   4.232  1.00  0.00    -0.002 A 
ATOM     34  C17 UNK     1      38.615  -7.808   4.609  1.00  0.00     0.014 A 
ATOM     35  C19 UNK     1      39.412  -8.737   3.939  1.00  0.00     0.001 A 
ATOM     36  C21 UNK     1      38.879  -9.488   2.891  1.00  0.00     0.000 A 
ATOM     37  C20 UNK     1      37.548  -9.309   2.512  1.00  0.00     0.001 A 
ATOM     38  C18 UNK     1      36.751  -8.381   3.182  1.00  0.00     0.014 A 
ENDBRANCH  10  33
TORSDOF 10
ENDMDL
MODEL 14
REMARK VINA RESULT:      -6.6      2.610      3.863
REMARK  10 active torsions:
REMARK  status: ('A' for Active; 'I' for Inactive)
REMARK    1  A    between atoms: O2_2  and  C4_15 
REMARK    2  A    between atoms: O2_2  and  C7_18 
REMARK    3  A    between atoms: O3_3  and  C1_12 
REMARK    4  A    between atoms: O4_4  and  C2_13 
REMARK    5  A    between atoms: O5_5  and  C3_14 
REMARK    6  A    between atoms: O6_6  and  C6_17 
REMARK    7  A    between atoms: O9_9  and  C9_20 
REMARK    8  A    between atoms: O10_10  and  C12_23 
REMARK    9  A    between atoms: C5_16  and  C6_17 
REMARK   10  A    between atoms: C14_25  and  C16_27 
ROOT
ATOM      1  O8  UNK     1      44.134   0.466   9.317  1.00  0.00    -0.309 OA
ATOM      2  O11 UNK     1      42.852   3.012   6.406  1.00  0.00    -0.287 OA
ATOM      3  C7  UNK     1      40.572  -0.295   9.431  1.00  0.00     0.110 A 
ATOM      4  C8  UNK     1      41.939  -0.311   9.709  1.00  0.00     0.078 A 
ATOM      5  C9  UNK     1      40.068   0.553   8.444  1.00  0.00     0.134 A 
ATOM      6  C10 UNK     1      42.802   0.525   8.998  1.00  0.00     0.096 A 
ATOM      7  C11 UNK     1      42.295   1.371   8.013  1.00  0.00     0.084 A 
ATOM      8  C12 UNK     1      40.927   1.390   7.731  1.00  0.00     0.118 A 
ATOM      9  C13 UNK     1      43.227   2.243   7.281  1.00  0.00     0.190 A 
ATOM     10  C14 UNK     1      45.016   1.280   8.621  1.00  0.00     0.090 A 
ATOM     11  C15 UNK     1      44.651   2.139   7.658  1.00  0.00     0.094 A 
ENDROOT
BRANCH   3  12
ATOM     12  O2  UNK     1      39.738  -1.116  10.131  1.00  0.00    -0.315 OA
BRANCH  12  13
ATOM     13  C4  UNK     1      39.473  -2.397   9.559  1.00  0.00     0.299 C 
ATOM     14  O1  UNK     1      38.856  -2.237   8.284  1.00  0.00    -0.340 OA
ATOM     15  C5  UNK     1      38.587  -3.484   7.652  1.00  0.00     0.253 C 
ATOM     16  C3  UNK     1      37.602  -4.310   8.470  1.00  0.00     0.189 C 
ATOM     17  C1  UNK     1      38.102  -4.488   9.904  1.00  0.00     0.183 C 
ATOM     18  C2  UNK     1      38.544  -3.155  10.509  1.00  0.00     0.205 C 
BRANCH  15  19
ATOM     19  C6  UNK     1      37.990  -3.083   6.342  1.00  0.00     0.172 C 
ATOM     20  O7  UNK     1      37.175  -3.740   5.712  1.00  0.00    -0.648 OA
BRANCH  19  21
ATOM     21  O6  UNK     1      38.480  -1.885   5.940  1.00  0.00    -0.774 OA
ATOM     22  H10 UNK     1      37.922  -1.139   6.245  1.00  0.00     0.167 HD
ENDBRANCH  19  21
ENDBRANCH  15  19
BRANCH  16  23
ATOM     23  O5  UNK     1      37.467  -5.594   7.862  1.00  0.00    -0.390 OA
ATOM     24  H8  UNK     1      37.569  -5.484   6.901  1.00  0.00     0.210 HD
ENDBRANCH  16  23
BRANCH  17  25
ATOM     25  O3  UNK     1      37.034  -5.033  10.681  1.00  0.00    -0.390 OA
ATOM     26  H6  UNK     1      36.489  -4.292  10.995  1.00  0.00     0.210 HD
ENDBRANCH  17  25
BRANCH  18  27
ATOM     27  O4  UNK     1      39.250  -3.398  11.726  1.00  0.00    -0.388 OA
ATOM     28  H7  UNK     1      38.922  -4.234  12.095  1.00  0.00     0.210 HD
ENDBRANCH  18  27
ENDBRANCH  12  13
ENDBRANCH   3  12
BRANCH   5  29
ATOM     29  O9  UNK     1      38.729   0.563   8.178  1.00  0.00    -0.356 OA
ATOM     30  H12 UNK     1      38.267   0.120   8.910  1.00  0.00     0.218 HD
ENDBRANCH   5  29
BRANCH   8  31
ATOM     31  O10 UNK     1      40.398   2.204   6.775  1.00  0.00    -0.357 OA
ATOM     32  H13 UNK     1      39.873   2.913   7.179  1.00  0.00     0.217 HD
ENDBRANCH   8  31
BRANCH  10  33
ATOM     33  C16 UNK     1      46.424   1.140   9.047  1.00  0.00    -0.002 A 
ATOM     34  C17 UNK     1      46.742   0.391  10.182  1.00  0.00     0.014 A 
ATOM     35  C19 UNK     1      48.072   0.258  10.583  1.00  0.00     0.001 A 
ATOM     36  C21 UNK     1      49.087   0.873   9.850  1.00  0.00     0.000 A 
ATOM     37  C20 UNK     1      48.772   1.622   8.716  1.00  0.00     0.001 A 
ATOM     38  C18 UNK     1      47.442   1.754   8.315  1.00  0.00     0.014 A 
ENDBRANCH  10  33
TORSDOF 10
ENDMDL
MODEL 15
REMARK VINA RESULT:      -6.6      2.806      3.811
REMARK  10 active torsions:
REMARK  status: ('A' for Active; 'I' for Inactive)
REMARK    1  A    between atoms: O2_2  and  C4_15 
REMARK    2  A    between atoms: O2_2  and  C7_18 
REMARK    3  A    between atoms: O3_3  and  C1_12 
REMARK    4  A    between atoms: O4_4  and  C2_13 
REMARK    5  A    between atoms: O5_5  and  C3_14 
REMARK    6  A    between atoms: O6_6  and  C6_17 
REMARK    7  A    between atoms: O9_9  and  C9_20 
REMARK    8  A    between atoms: O10_10  and  C12_23 
REMARK    9  A    between atoms: C5_16  and  C6_17 
REMARK   10  A    between atoms: C14_25  and  C16_27 
ROOT
ATOM      1  O8  UNK     1      44.294   0.263   9.170  1.00  0.00    -0.309 OA
ATOM      2  O11 UNK     1      43.733   1.778  12.910  1.00  0.00    -0.287 OA
ATOM      3  C7  UNK     1      41.327  -1.634  10.107  1.00  0.00     0.110 A 
ATOM      4  C8  UNK     1      42.410  -1.146   9.376  1.00  0.00     0.078 A 
ATOM      5  C9  UNK     1      41.078  -1.156  11.394  1.00  0.00     0.134 A 
ATOM      6  C10 UNK     1      43.245  -0.178   9.936  1.00  0.00     0.096 A 
ATOM      7  C11 UNK     1      42.994   0.298  11.221  1.00  0.00     0.084 A 
ATOM      8  C12 UNK     1      41.910  -0.188  11.956  1.00  0.00     0.118 A 
ATOM      9  C13 UNK     1      43.891   1.317  11.787  1.00  0.00     0.190 A 
ATOM     10  C14 UNK     1      45.136   1.230   9.697  1.00  0.00     0.090 A 
ATOM     11  C15 UNK     1      45.003   1.761  10.923  1.00  0.00     0.094 A 
ENDROOT
BRANCH   3  12
ATOM     12  O2  UNK     1      40.517  -2.580   9.550  1.00  0.00    -0.315 OA
BRANCH  12  13
ATOM     13  C4  UNK     1      39.413  -2.104   8.779  1.00  0.00     0.299 C 
ATOM     14  O1  UNK     1      38.206  -2.255   9.523  1.00  0.00    -0.340 OA
ATOM     15  C5  UNK     1      37.070  -1.775   8.813  1.00  0.00     0.253 C 
ATOM     16  C3  UNK     1      36.850  -2.569   7.531  1.00  0.00     0.189 C 
ATOM     17  C1  UNK     1      38.112  -2.565   6.668  1.00  0.00     0.183 C 
ATOM     18  C2  UNK     1      39.350  -2.922   7.489  1.00  0.00     0.205 C 
BRANCH  15  19
ATOM     19  C6  UNK     1      35.948  -1.991   9.775  1.00  0.00     0.172 C 
ATOM     20  O7  UNK     1      35.636  -1.224  10.674  1.00  0.00    -0.648 OA
BRANCH  19  21
ATOM     21  O6  UNK     1      35.317  -3.164   9.520  1.00  0.00    -0.774 OA
ATOM     22  H10 UNK     1      35.770  -3.924   9.943  1.00  0.00     0.167 HD
ENDBRANCH  19  21
ENDBRANCH  15  19
BRANCH  16  23
ATOM     23  O5  UNK     1      35.783  -1.969   6.799  1.00  0.00    -0.390 OA
ATOM     24  H8  UNK     1      35.097  -2.644   6.656  1.00  0.00     0.210 HD
ENDBRANCH  16  23
BRANCH  17  25
ATOM     25  O3  UNK     1      37.938  -3.527   5.626  1.00  0.00    -0.390 OA
ATOM     26  H6  UNK     1      37.199  -4.105   5.877  1.00  0.00     0.210 HD
ENDBRANCH  17  25
BRANCH  18  27
ATOM     27  O4  UNK     1      40.523  -2.643   6.725  1.00  0.00    -0.388 OA
ATOM     28  H7  UNK     1      41.242  -2.449   7.348  1.00  0.00     0.210 HD
ENDBRANCH  18  27
ENDBRANCH  12  13
ENDBRANCH   3  12
BRANCH   5  29
ATOM     29  O9  UNK     1      40.016  -1.639  12.102  1.00  0.00    -0.356 OA
ATOM     30  H12 UNK     1      40.323  -2.384  12.648  1.00  0.00     0.218 HD
ENDBRANCH   5  29
BRANCH   8  31
ATOM     31  O10 UNK     1      41.635   0.254  13.216  1.00  0.00    -0.357 OA
ATOM     32  H13 UNK     1      42.450   0.491  13.683  1.00  0.00     0.217 HD
ENDBRANCH   8  31
BRANCH  10  33
ATOM     33  C16 UNK     1      46.233   1.629   8.792  1.00  0.00    -0.002 A 
ATOM     34  C17 UNK     1      45.946   2.238   7.568  1.00  0.00     0.014 A 
ATOM     35  C19 UNK     1      46.983   2.615   6.714  1.00  0.00     0.001 A 
ATOM     36  C21 UNK     1      48.309   2.386   7.081  1.00  0.00     0.000 A 
ATOM     37  C20 UNK     1      48.599   1.778   8.302  1.00  0.00     0.001 A 
ATOM     38  C18 UNK     1      47.562   1.400   9.156  1.00  0.00     0.014 A 
ENDBRANCH  10  33
TORSDOF 10
ENDMDL
MODEL 16
REMARK VINA RESULT:      -6.6      1.999      3.180
REMARK  10 active torsions:
REMARK  status: ('A' for Active; 'I' for Inactive)
REMARK    1  A    between atoms: O2_2  and  C4_15 
REMARK    2  A    between atoms: O2_2  and  C7_18 
REMARK    3  A    between atoms: O3_3  and  C1_12 
REMARK    4  A    between atoms: O4_4  and  C2_13 
REMARK    5  A    between atoms: O5_5  and  C3_14 
REMARK    6  A    between atoms: O6_6  and  C6_17 
REMARK    7  A    between atoms: O9_9  and  C9_20 
REMARK    8  A    between atoms: O10_10  and  C12_23 
REMARK    9  A    between atoms: C5_16  and  C6_17 
REMARK   10  A    between atoms: C14_25  and  C16_27 
ROOT
ATOM      1  O8  UNK     1      43.743   1.338   9.182  1.00  0.00    -0.309 OA
ATOM      2  O11 UNK     1      43.404   5.316   9.994  1.00  0.00    -0.287 OA
ATOM      3  C7  UNK     1      40.113   1.558   9.411  1.00  0.00     0.110 A 
ATOM      4  C8  UNK     1      41.400   1.048   9.244  1.00  0.00     0.078 A 
ATOM      5  C9  UNK     1      39.927   2.913   9.690  1.00  0.00     0.134 A 
ATOM      6  C10 UNK     1      42.503   1.897   9.356  1.00  0.00     0.096 A 
ATOM      7  C11 UNK     1      42.314   3.249   9.635  1.00  0.00     0.084 A 
ATOM      8  C12 UNK     1      41.027   3.764   9.802  1.00  0.00     0.118 A 
ATOM      9  C13 UNK     1      43.494   4.120   9.749  1.00  0.00     0.190 A 
ATOM     10  C14 UNK     1      44.857   2.158   9.280  1.00  0.00     0.090 A 
ATOM     11  C15 UNK     1      44.806   3.472   9.550  1.00  0.00     0.094 A 
ENDROOT
BRANCH   3  12
ATOM     12  O2  UNK     1      39.042   0.721   9.299  1.00  0.00    -0.315 OA
BRANCH  12  13
ATOM     13  C4  UNK     1      39.314  -0.679   9.380  1.00  0.00     0.299 C 
ATOM     14  O1  UNK     1      38.882  -1.322   8.183  1.00  0.00    -0.340 OA
ATOM     15  C5  UNK     1      39.148  -2.720   8.195  1.00  0.00     0.253 C 
ATOM     16  C3  UNK     1      38.384  -3.413   9.317  1.00  0.00     0.189 C 
ATOM     17  C1  UNK     1      38.688  -2.758  10.664  1.00  0.00     0.183 C 
ATOM     18  C2  UNK     1      38.559  -1.237  10.587  1.00  0.00     0.205 C 
BRANCH  15  19
ATOM     19  C6  UNK     1      38.660  -3.174   6.857  1.00  0.00     0.172 C 
ATOM     20  O7  UNK     1      38.318  -4.315   6.584  1.00  0.00    -0.648 OA
BRANCH  19  21
ATOM     21  O6  UNK     1      38.650  -2.143   5.977  1.00  0.00    -0.774 OA
ATOM     22  H10 UNK     1      39.113  -1.354   6.331  1.00  0.00     0.167 HD
ENDBRANCH  19  21
ENDBRANCH  15  19
BRANCH  16  23
ATOM     23  O5  UNK     1      38.783  -4.782   9.364  1.00  0.00    -0.390 OA
ATOM     24  H8  UNK     1      39.556  -4.892   8.784  1.00  0.00     0.210 HD
ENDBRANCH  16  23
BRANCH  17  25
ATOM     25  O3  UNK     1      37.759  -3.267  11.623  1.00  0.00    -0.390 OA
ATOM     26  H6  UNK     1      37.021  -3.667  11.136  1.00  0.00     0.210 HD
ENDBRANCH  17  25
BRANCH  18  27
ATOM     27  O4  UNK     1      39.110  -0.653  11.768  1.00  0.00    -0.388 OA
ATOM     28  H7  UNK     1      39.671   0.091  11.494  1.00  0.00     0.210 HD
ENDBRANCH  18  27
ENDBRANCH  12  13
ENDBRANCH   3  12
BRANCH   5  29
ATOM     29  O9  UNK     1      38.664   3.405   9.852  1.00  0.00    -0.356 OA
ATOM     30  H12 UNK     1      38.319   3.090  10.706  1.00  0.00     0.218 HD
ENDBRANCH   5  29
BRANCH   8  31
ATOM     31  O10 UNK     1      40.805   5.081  10.076  1.00  0.00    -0.357 OA
ATOM     32  H13 UNK     1      41.337   5.646   9.496  1.00  0.00     0.217 HD
ENDBRANCH   8  31
BRANCH  10  33
ATOM     33  C16 UNK     1      46.140   1.454   9.081  1.00  0.00    -0.002 A 
ATOM     34  C17 UNK     1      46.507   0.410   9.934  1.00  0.00     0.014 A 
ATOM     35  C19 UNK     1      47.719  -0.256   9.745  1.00  0.00     0.001 A 
ATOM     36  C21 UNK     1      48.566   0.120   8.703  1.00  0.00     0.000 A 
ATOM     37  C20 UNK     1      48.203   1.162   7.849  1.00  0.00     0.001 A 
ATOM     38  C18 UNK     1      46.991   1.827   8.039  1.00  0.00     0.014 A 
ENDBRANCH  10  33
TORSDOF 10
ENDMDL
MODEL 17
REMARK VINA RESULT:      -6.6      3.817      5.781
REMARK  10 active torsions:
REMARK  status: ('A' for Active; 'I' for Inactive)
REMARK    1  A    between atoms: O2_2  and  C4_15 
REMARK    2  A    between atoms: O2_2  and  C7_18 
REMARK    3  A    between atoms: O3_3  and  C1_12 
REMARK    4  A    between atoms: O4_4  and  C2_13 
REMARK    5  A    between atoms: O5_5  and  C3_14 
REMARK    6  A    between atoms: O6_6  and  C6_17 
REMARK    7  A    between atoms: O9_9  and  C9_20 
REMARK    8  A    between atoms: O10_10  and  C12_23 
REMARK    9  A    between atoms: C5_16  and  C6_17 
REMARK   10  A    between atoms: C14_25  and  C16_27 
ROOT
ATOM      1  O8  UNK     1      41.290  -0.629   8.869  1.00  0.00    -0.309 OA
ATOM      2  O11 UNK     1      38.754   1.826   6.832  1.00  0.00    -0.287 OA
ATOM      3  C7  UNK     1      38.186  -2.465   9.392  1.00  0.00     0.110 A 
ATOM      4  C8  UNK     1      39.532  -2.100   9.435  1.00  0.00     0.078 A 
ATOM      5  C9  UNK     1      37.265  -1.669   8.710  1.00  0.00     0.134 A 
ATOM      6  C10 UNK     1      39.955  -0.936   8.792  1.00  0.00     0.096 A 
ATOM      7  C11 UNK     1      39.034  -0.142   8.112  1.00  0.00     0.084 A 
ATOM      8  C12 UNK     1      37.686  -0.504   8.067  1.00  0.00     0.118 A 
ATOM      9  C13 UNK     1      39.507   1.081   7.445  1.00  0.00     0.190 A 
ATOM     10  C14 UNK     1      41.741   0.519   8.234  1.00  0.00     0.090 A 
ATOM     11  C15 UNK     1      40.953   1.365   7.554  1.00  0.00     0.094 A 
ENDROOT
BRANCH   3  12
ATOM     12  O2  UNK     1      37.782  -3.605  10.023  1.00  0.00    -0.315 OA
BRANCH  12  13
ATOM     13  C4  UNK     1      37.687  -4.782   9.219  1.00  0.00     0.299 C 
ATOM     14  O1  UNK     1      37.752  -4.428   7.839  1.00  0.00    -0.340 OA
ATOM     15  C5  UNK     1      37.685  -5.565   6.985  1.00  0.00     0.253 C 
ATOM     16  C3  UNK     1      36.356  -6.294   7.148  1.00  0.00     0.189 C 
ATOM     17  C1  UNK     1      36.114  -6.659   8.612  1.00  0.00     0.183 C 
ATOM     18  C2  UNK     1      36.354  -5.461   9.533  1.00  0.00     0.205 C 
BRANCH  15  19
ATOM     19  C6  UNK     1      37.808  -4.975   5.618  1.00  0.00     0.172 C 
ATOM     20  O7  UNK     1      37.170  -5.333   4.639  1.00  0.00    -0.648 OA
BRANCH  19  21
ATOM     21  O6  UNK     1      38.730  -3.982   5.606  1.00  0.00    -0.774 OA
ATOM     22  H10 UNK     1      38.815  -3.571   4.720  1.00  0.00     0.167 HD
ENDBRANCH  19  21
ENDBRANCH  15  19
BRANCH  16  23
ATOM     23  O5  UNK     1      36.393  -7.489   6.370  1.00  0.00    -0.390 OA
ATOM     24  H8  UNK     1      37.265  -7.901   6.490  1.00  0.00     0.210 HD
ENDBRANCH  16  23
BRANCH  17  25
ATOM     25  O3  UNK     1      34.759  -7.094   8.741  1.00  0.00    -0.390 OA
ATOM     26  H6  UNK     1      34.317  -6.501   9.371  1.00  0.00     0.210 HD
ENDBRANCH  17  25
BRANCH  18  27
ATOM     27  O4  UNK     1      36.387  -5.905  10.889  1.00  0.00    -0.388 OA
ATOM     28  H7  UNK     1      36.382  -6.877  10.881  1.00  0.00     0.210 HD
ENDBRANCH  18  27
ENDBRANCH  12  13
ENDBRANCH   3  12
BRANCH   5  29
ATOM     29  O9  UNK     1      35.950  -2.033   8.673  1.00  0.00    -0.356 OA
ATOM     30  H12 UNK     1      35.407  -1.242   8.839  1.00  0.00     0.218 HD
ENDBRANCH   5  29
BRANCH   8  31
ATOM     31  O10 UNK     1      36.757   0.248   7.411  1.00  0.00    -0.357 OA
ATOM     32  H13 UNK     1      37.125   1.109   7.162  1.00  0.00     0.217 HD
ENDBRANCH   8  31
BRANCH  10  33
ATOM     33  C16 UNK     1      43.191   0.757   8.384  1.00  0.00    -0.002 A 
ATOM     34  C17 UNK     1      43.893   1.453   7.396  1.00  0.00     0.014 A 
ATOM     35  C19 UNK     1      45.262   1.679   7.539  1.00  0.00     0.001 A 
ATOM     36  C21 UNK     1      45.934   1.210   8.668  1.00  0.00     0.000 A 
ATOM     37  C20 UNK     1      45.236   0.514   9.655  1.00  0.00     0.001 A 
ATOM     38  C18 UNK     1      43.866   0.289   9.513  1.00  0.00     0.014 A 
ENDBRANCH  10  33
TORSDOF 10
ENDMDL
MODEL 18
REMARK VINA RESULT:      -6.6      2.479      3.349
REMARK  10 active torsions:
REMARK  status: ('A' for Active; 'I' for Inactive)
REMARK    1  A    between atoms: O2_2  and  C4_15 
REMARK    2  A    between atoms: O2_2  and  C7_18 
REMARK    3  A    between atoms: O3_3  and  C1_12 
REMARK    4  A    between atoms: O4_4  and  C2_13 
REMARK    5  A    between atoms: O5_5  and  C3_14 
REMARK    6  A    between atoms: O6_6  and  C6_17 
REMARK    7  A    between atoms: O9_9  and  C9_20 
REMARK    8  A    between atoms: O10_10  and  C12_23 
REMARK    9  A    between atoms: C5_16  and  C6_17 
REMARK   10  A    between atoms: C14_25  and  C16_27 
ROOT
ATOM      1  O8  UNK     1      45.258   1.133   8.951  1.00  0.00    -0.309 OA
ATOM      2  O11 UNK     1      44.983   2.355  12.828  1.00  0.00    -0.287 OA
ATOM      3  C7  UNK     1      42.260  -0.703   9.909  1.00  0.00     0.110 A 
ATOM      4  C8  UNK     1      43.323  -0.205   9.156  1.00  0.00     0.078 A 
ATOM      5  C9  UNK     1      42.107  -0.323  11.243  1.00  0.00     0.134 A 
ATOM      6  C10 UNK     1      44.234   0.677   9.740  1.00  0.00     0.096 A 
ATOM      7  C11 UNK     1      44.080   1.054  11.073  1.00  0.00     0.084 A 
ATOM      8  C12 UNK     1      43.016   0.557  11.830  1.00  0.00     0.118 A 
ATOM      9  C13 UNK     1      45.056   1.983  11.664  1.00  0.00     0.190 A 
ATOM     10  C14 UNK     1      46.175   2.015   9.502  1.00  0.00     0.090 A 
ATOM     11  C15 UNK     1      46.137   2.448  10.772  1.00  0.00     0.094 A 
ENDROOT
BRANCH   3  12
ATOM     12  O2  UNK     1      41.375  -1.563   9.329  1.00  0.00    -0.315 OA
BRANCH  12  13
ATOM     13  C4  UNK     1      40.274  -0.976   8.634  1.00  0.00     0.299 C 
ATOM     14  O1  UNK     1      39.349  -0.431   9.571  1.00  0.00    -0.340 OA
ATOM     15  C5  UNK     1      38.237   0.191   8.935  1.00  0.00     0.253 C 
ATOM     16  C3  UNK     1      37.435  -0.820   8.125  1.00  0.00     0.189 C 
ATOM     17  C1  UNK     1      38.333  -1.551   7.128  1.00  0.00     0.183 C 
ATOM     18  C2  UNK     1      39.606  -2.069   7.799  1.00  0.00     0.205 C 
BRANCH  15  19
ATOM     19  C6  UNK     1      37.435   0.715  10.082  1.00  0.00     0.172 C 
ATOM     20  O7  UNK     1      36.282   1.112  10.008  1.00  0.00    -0.648 OA
BRANCH  19  21
ATOM     21  O6  UNK     1      38.164   0.695  11.224  1.00  0.00    -0.774 OA
ATOM     22  H10 UNK     1      37.869  -0.013  11.835  1.00  0.00     0.167 HD
ENDBRANCH  19  21
ENDBRANCH  15  19
BRANCH  16  23
ATOM     23  O5  UNK     1      36.414  -0.125   7.410  1.00  0.00    -0.390 OA
ATOM     24  H8  UNK     1      36.715   0.788   7.266  1.00  0.00     0.210 HD
ENDBRANCH  16  23
BRANCH  17  25
ATOM     25  O3  UNK     1      37.596  -2.651   6.592  1.00  0.00    -0.390 OA
ATOM     26  H6  UNK     1      36.775  -2.299   6.210  1.00  0.00     0.210 HD
ENDBRANCH  17  25
BRANCH  18  27
ATOM     27  O4  UNK     1      40.530  -2.495   6.798  1.00  0.00    -0.388 OA
ATOM     28  H7  UNK     1      40.020  -2.712   6.000  1.00  0.00     0.210 HD
ENDBRANCH  18  27
ENDBRANCH  12  13
ENDBRANCH   3  12
BRANCH   5  29
ATOM     29  O9  UNK     1      41.064  -0.816  11.973  1.00  0.00    -0.356 OA
ATOM     30  H12 UNK     1      41.015  -0.322  12.811  1.00  0.00     0.218 HD
ENDBRANCH   5  29
BRANCH   8  31
ATOM     31  O10 UNK     1      42.834   0.905  13.136  1.00  0.00    -0.357 OA
ATOM     32  H13 UNK     1      43.449   1.609  13.393  1.00  0.00     0.217 HD
ENDBRANCH   8  31
BRANCH  10  33
ATOM     33  C16 UNK     1      47.237   2.439   8.568  1.00  0.00    -0.002 A 
ATOM     34  C17 UNK     1      46.990   2.471   7.193  1.00  0.00     0.014 A 
ATOM     35  C19 UNK     1      47.993   2.872   6.310  1.00  0.00     0.001 A 
ATOM     36  C21 UNK     1      49.246   3.243   6.799  1.00  0.00     0.000 A 
ATOM     37  C20 UNK     1      49.496   3.212   8.171  1.00  0.00     0.001 A 
ATOM     38  C18 UNK     1      48.492   2.811   9.054  1.00  0.00     0.014 A 
ENDBRANCH  10  33
TORSDOF 10
ENDMDL
MODEL 19
REMARK VINA RESULT:      -6.4      2.956      7.646
REMARK  10 active torsions:
REMARK  status: ('A' for Active; 'I' for Inactive)
REMARK    1  A    between atoms: O2_2  and  C4_15 
REMARK    2  A    between atoms: O2_2  and  C7_18 
REMARK    3  A    between atoms: O3_3  and  C1_12 
REMARK    4  A    between atoms: O4_4  and  C2_13 
REMARK    5  A    between atoms: O5_5  and  C3_14 
REMARK    6  A    between atoms: O6_6  and  C6_17 
REMARK    7  A    between atoms: O9_9  and  C9_20 
REMARK    8  A    between atoms: O10_10  and  C12_23 
REMARK    9  A    between atoms: C5_16  and  C6_17 
REMARK   10  A    between atoms: C14_25  and  C16_27 
ROOT
ATOM      1  O8  UNK     1      38.830  -0.638   7.614  1.00  0.00    -0.309 OA
ATOM      2  O11 UNK     1      36.259   0.934  10.356  1.00  0.00    -0.287 OA
ATOM      3  C7  UNK     1      40.786   2.267   8.620  1.00  0.00     0.110 A 
ATOM      4  C8  UNK     1      40.393   1.095   7.974  1.00  0.00     0.078 A 
ATOM      5  C9  UNK     1      39.952   2.856   9.572  1.00  0.00     0.134 A 
ATOM      6  C10 UNK     1      39.162   0.512   8.282  1.00  0.00     0.096 A 
ATOM      7  C11 UNK     1      38.332   1.103   9.232  1.00  0.00     0.084 A 
ATOM      8  C12 UNK     1      38.722   2.277   9.881  1.00  0.00     0.118 A 
ATOM      9  C13 UNK     1      37.039   0.469   9.536  1.00  0.00     0.190 A 
ATOM     10  C14 UNK     1      37.616  -1.243   7.905  1.00  0.00     0.090 A 
ATOM     11  C15 UNK     1      36.729  -0.769   8.793  1.00  0.00     0.094 A 
ENDROOT
BRANCH   3  12
ATOM     12  O2  UNK     1      41.991   2.828   8.312  1.00  0.00    -0.315 OA
BRANCH  12  13
ATOM     13  C4  UNK     1      43.133   1.975   8.396  1.00  0.00     0.299 C 
ATOM     14  O1  UNK     1      43.621   1.954   9.736  1.00  0.00    -0.340 OA
ATOM     15  C5  UNK     1      44.750   1.100   9.887  1.00  0.00     0.253 C 
ATOM     16  C3  UNK     1      45.922   1.588   9.044  1.00  0.00     0.189 C 
ATOM     17  C1  UNK     1      45.510   1.743   7.581  1.00  0.00     0.183 C 
ATOM     18  C2  UNK     1      44.202   2.523   7.449  1.00  0.00     0.205 C 
BRANCH  15  19
ATOM     19  C6  UNK     1      45.061   1.199  11.345  1.00  0.00     0.172 C 
ATOM     20  O7  UNK     1      46.175   1.084  11.834  1.00  0.00    -0.648 OA
BRANCH  19  21
ATOM     21  O6  UNK     1      43.934   1.432  12.061  1.00  0.00    -0.774 OA
ATOM     22  H10 UNK     1      43.711   0.679  12.649  1.00  0.00     0.167 HD
ENDBRANCH  19  21
ENDBRANCH  15  19
BRANCH  16  23
ATOM     23  O5  UNK     1      46.978   0.632   9.133  1.00  0.00    -0.390 OA
ATOM     24  H8  UNK     1      46.584  -0.256   9.093  1.00  0.00     0.210 HD
ENDBRANCH  16  23
BRANCH  17  25
ATOM     25  O3  UNK     1      46.552   2.443   6.899  1.00  0.00    -0.390 OA
ATOM     26  H6  UNK     1      46.664   3.304   7.334  1.00  0.00     0.210 HD
ENDBRANCH  17  25
BRANCH  18  27
ATOM     27  O4  UNK     1      43.715   2.410   6.112  1.00  0.00    -0.388 OA
ATOM     28  H7  UNK     1      42.841   1.986   6.151  1.00  0.00     0.210 HD
ENDBRANCH  18  27
ENDBRANCH  12  13
ENDBRANCH   3  12
BRANCH   5  29
ATOM     29  O9  UNK     1      40.345   4.003  10.199  1.00  0.00    -0.356 OA
ATOM     30  H12 UNK     1      40.166   4.754   9.607  1.00  0.00     0.218 HD
ENDBRANCH   5  29
BRANCH   8  31
ATOM     31  O10 UNK     1      37.935   2.881  10.816  1.00  0.00    -0.357 OA
ATOM     32  H13 UNK     1      37.009   2.617  10.709  1.00  0.00     0.217 HD
ENDBRANCH   8  31
BRANCH  10  33
ATOM     33  C16 UNK     1      37.357  -2.472   7.126  1.00  0.00    -0.002 A 
ATOM     34  C17 UNK     1      38.418  -3.293   6.738  1.00  0.00     0.014 A 
ATOM     35  C19 UNK     1      38.172  -4.454   6.004  1.00  0.00     0.001 A 
ATOM     36  C21 UNK     1      36.866  -4.797   5.657  1.00  0.00     0.000 A 
ATOM     37  C20 UNK     1      35.804  -3.979   6.043  1.00  0.00     0.001 A 
ATOM     38  C18 UNK     1      36.050  -2.819   6.777  1.00  0.00     0.014 A 
ENDBRANCH  10  33
TORSDOF 10
ENDMDL
