MODEL 1
REMARK VINA RESULT:      -7.2      0.000      0.000
REMARK  10 active torsions:
REMARK  status: ('A' for Active; 'I' for Inactive)
REMARK    1  A    between atoms: O2_2  and  C4_15 
REMARK    2  A    between atoms: O2_2  and  C7_18 
REMARK    3  A    between atoms: O3_3  and  C1_12 
REMARK    4  A    between atoms: O4_4  and  C2_13 
REMARK    5  A    between atoms: O5_5  and  C3_14 
REMARK    6  A    between atoms: O6_6  and  C6_17 
REMARK    7  A    between atoms: O9_9  and  C9_20 
REMARK    8  A    between atoms: O10_10  and  C12_23 
REMARK    9  A    between atoms: C5_16  and  C6_17 
REMARK   10  A    between atoms: C14_25  and  C16_27 
ROOT
ATOM      1  O8  UNK     1      44.101   2.231   8.140  1.00  0.00    -0.309 OA
ATOM      2  O11 UNK     1      42.547   5.469  10.065  1.00  0.00    -0.287 OA
ATOM      3  C7  UNK     1      40.643   1.116   8.418  1.00  0.00     0.110 A 
ATOM      4  C8  UNK     1      42.003   1.147   8.112  1.00  0.00     0.078 A 
ATOM      5  C9  UNK     1      40.048   2.194   9.075  1.00  0.00     0.134 A 
ATOM      6  C10 UNK     1      42.769   2.259   8.466  1.00  0.00     0.096 A 
ATOM      7  C11 UNK     1      42.172   3.334   9.123  1.00  0.00     0.084 A 
ATOM      8  C12 UNK     1      40.810   3.307   9.430  1.00  0.00     0.118 A 
ATOM      9  C13 UNK     1      43.003   4.492   9.485  1.00  0.00     0.190 A 
ATOM     10  C14 UNK     1      44.885   3.326   8.473  1.00  0.00     0.090 A 
ATOM     11  C15 UNK     1      44.429   4.416   9.109  1.00  0.00     0.094 A 
ENDROOT
BRANCH   3  12
ATOM     12  O2  UNK     1      39.903   0.024   8.068  1.00  0.00    -0.315 OA
BRANCH  12  13
ATOM     13  C4  UNK     1      39.669  -0.944   9.091  1.00  0.00     0.299 C 
ATOM     14  O1  UNK     1      39.500  -0.288  10.345  1.00  0.00    -0.340 OA
ATOM     15  C5  UNK     1      39.239  -1.202  11.404  1.00  0.00     0.253 C 
ATOM     16  C3  UNK     1      40.413  -2.153  11.606  1.00  0.00     0.189 C 
ATOM     17  C1  UNK     1      40.764  -2.868  10.301  1.00  0.00     0.183 C 
ATOM     18  C2  UNK     1      40.875  -1.882   9.138  1.00  0.00     0.205 C 
BRANCH  15  19
ATOM     19  C6  UNK     1      39.060  -0.312  12.590  1.00  0.00     0.172 C 
ATOM     20  O7  UNK     1      39.025  -0.690  13.752  1.00  0.00    -0.648 OA
BRANCH  19  21
ATOM     21  O6  UNK     1      38.938   0.981  12.204  1.00  0.00    -0.774 OA
ATOM     22  H10 UNK     1      39.679   1.534  12.533  1.00  0.00     0.167 HD
ENDBRANCH  19  21
ENDBRANCH  15  19
BRANCH  16  23
ATOM     23  O5  UNK     1      40.050  -3.124  12.587  1.00  0.00    -0.390 OA
ATOM     24  H8  UNK     1      39.756  -3.927  12.122  1.00  0.00     0.210 HD
ENDBRANCH  16  23
BRANCH  17  25
ATOM     25  O3  UNK     1      42.015  -3.533  10.484  1.00  0.00    -0.390 OA
ATOM     26  H6  UNK     1      42.689  -3.035   9.992  1.00  0.00     0.210 HD
ENDBRANCH  17  25
BRANCH  18  27
ATOM     27  O4  UNK     1      40.930  -2.604   7.908  1.00  0.00    -0.388 OA
ATOM     28  H7  UNK     1      41.530  -3.357   8.035  1.00  0.00     0.210 HD
ENDBRANCH  18  27
ENDBRANCH  12  13
ENDBRANCH   3  12
BRANCH   5  29
ATOM     29  O9  UNK     1      38.716   2.156   9.371  1.00  0.00    -0.356 OA
ATOM     30  H12 UNK     1      38.357   3.057   9.293  1.00  0.00     0.218 HD
ENDBRANCH   5  29
BRANCH   8  31
ATOM     31  O10 UNK     1      40.193   4.340  10.071  1.00  0.00    -0.357 OA
ATOM     32  H13 UNK     1      40.822   4.822  10.629  1.00  0.00     0.217 HD
ENDBRANCH   8  31
BRANCH  10  33
ATOM     33  C16 UNK     1      46.302   3.190   8.081  1.00  0.00    -0.002 A 
ATOM     34  C17 UNK     1      46.668   2.295   7.071  1.00  0.00     0.014 A 
ATOM     35  C19 UNK     1      48.007   2.168   6.701  1.00  0.00     0.001 A 
ATOM     36  C21 UNK     1      48.984   2.934   7.336  1.00  0.00     0.000 A 
ATOM     37  C20 UNK     1      48.622   3.828   8.344  1.00  0.00     0.001 A 
ATOM     38  C18 UNK     1      47.283   3.956   8.715  1.00  0.00     0.014 A 
ENDBRANCH  10  33
TORSDOF 10
ENDMDL
MODEL 2
REMARK VINA RESULT:      -7.2      5.215      9.775
REMARK  10 active torsions:
REMARK  status: ('A' for Active; 'I' for Inactive)
REMARK    1  A    between atoms: O2_2  and  C4_15 
REMARK    2  A    between atoms: O2_2  and  C7_18 
REMARK    3  A    between atoms: O3_3  and  C1_12 
REMARK    4  A    between atoms: O4_4  and  C2_13 
REMARK    5  A    between atoms: O5_5  and  C3_14 
REMARK    6  A    between atoms: O6_6  and  C6_17 
REMARK    7  A    between atoms: O9_9  and  C9_20 
REMARK    8  A    between atoms: O10_10  and  C12_23 
REMARK    9  A    between atoms: C5_16  and  C6_17 
REMARK   10  A    between atoms: C14_25  and  C16_27 
ROOT
ATOM      1  O8  UNK     1      37.751  -5.630   5.669  1.00  0.00    -0.309 OA
ATOM      2  O11 UNK     1      37.059  -7.133   9.392  1.00  0.00    -0.287 OA
ATOM      3  C7  UNK     1      37.598  -2.496   7.522  1.00  0.00     0.110 A 
ATOM      4  C8  UNK     1      37.726  -3.411   6.477  1.00  0.00     0.078 A 
ATOM      5  C9  UNK     1      37.361  -2.945   8.822  1.00  0.00     0.134 A 
ATOM      6  C10 UNK     1      37.617  -4.779   6.735  1.00  0.00     0.096 A 
ATOM      7  C11 UNK     1      37.380  -5.224   8.034  1.00  0.00     0.084 A 
ATOM      8  C12 UNK     1      37.252  -4.311   9.083  1.00  0.00     0.118 A 
ATOM      9  C13 UNK     1      37.268  -6.671   8.278  1.00  0.00     0.190 A 
ATOM     10  C14 UNK     1      37.655  -6.994   5.896  1.00  0.00     0.090 A 
ATOM     11  C15 UNK     1      37.424  -7.545   7.098  1.00  0.00     0.094 A 
ENDROOT
BRANCH   3  12
ATOM     12  O2  UNK     1      37.706  -1.162   7.259  1.00  0.00    -0.315 OA
BRANCH  12  13
ATOM     13  C4  UNK     1      39.025  -0.614   7.264  1.00  0.00     0.299 C 
ATOM     14  O1  UNK     1      39.782  -1.193   8.324  1.00  0.00    -0.340 OA
ATOM     15  C5  UNK     1      41.117  -0.702   8.367  1.00  0.00     0.253 C 
ATOM     16  C3  UNK     1      41.140   0.799   8.635  1.00  0.00     0.189 C 
ATOM     17  C1  UNK     1      40.284   1.545   7.611  1.00  0.00     0.183 C 
ATOM     18  C2  UNK     1      38.907   0.898   7.458  1.00  0.00     0.205 C 
BRANCH  15  19
ATOM     19  C6  UNK     1      41.725  -1.457   9.504  1.00  0.00     0.172 C 
ATOM     20  O7  UNK     1      41.991  -0.984  10.599  1.00  0.00    -0.648 OA
BRANCH  19  21
ATOM     21  O6  UNK     1      41.947  -2.748   9.157  1.00  0.00    -0.774 OA
ATOM     22  H10 UNK     1      41.140  -3.175   8.797  1.00  0.00     0.167 HD
ENDBRANCH  19  21
ENDBRANCH  15  19
BRANCH  16  23
ATOM     23  O5  UNK     1      42.487   1.259   8.541  1.00  0.00    -0.390 OA
ATOM     24  H8  UNK     1      42.508   2.190   8.824  1.00  0.00     0.210 HD
ENDBRANCH  16  23
BRANCH  17  25
ATOM     25  O3  UNK     1      40.130   2.892   8.061  1.00  0.00    -0.390 OA
ATOM     26  H6  UNK     1      39.865   3.430   7.298  1.00  0.00     0.210 HD
ENDBRANCH  17  25
BRANCH  18  27
ATOM     27  O4  UNK     1      38.251   1.446   6.314  1.00  0.00    -0.388 OA
ATOM     28  H7  UNK     1      37.305   1.516   6.523  1.00  0.00     0.210 HD
ENDBRANCH  18  27
ENDBRANCH  12  13
ENDBRANCH   3  12
BRANCH   5  29
ATOM     29  O9  UNK     1      37.237  -2.042   9.838  1.00  0.00    -0.356 OA
ATOM     30  H12 UNK     1      36.644  -1.329   9.545  1.00  0.00     0.218 HD
ENDBRANCH   5  29
BRANCH   8  31
ATOM     31  O10 UNK     1      37.020  -4.711  10.365  1.00  0.00    -0.357 OA
ATOM     32  H13 UNK     1      37.035  -5.677  10.432  1.00  0.00     0.217 HD
ENDBRANCH   8  31
BRANCH  10  33
ATOM     33  C16 UNK     1      37.809  -7.818   4.680  1.00  0.00    -0.002 A 
ATOM     34  C17 UNK     1      39.026  -8.452   4.412  1.00  0.00     0.014 A 
ATOM     35  C19 UNK     1      39.171  -9.231   3.264  1.00  0.00     0.001 A 
ATOM     36  C21 UNK     1      38.102  -9.379   2.381  1.00  0.00     0.000 A 
ATOM     37  C20 UNK     1      36.886  -8.748   2.645  1.00  0.00     0.001 A 
ATOM     38  C18 UNK     1      36.741  -7.969   3.794  1.00  0.00     0.014 A 
ENDBRANCH  10  33
TORSDOF 10
ENDMDL
MODEL 3
REMARK VINA RESULT:      -7.0      1.711      2.944
REMARK  10 active torsions:
REMARK  status: ('A' for Active; 'I' for Inactive)
REMARK    1  A    between atoms: O2_2  and  C4_15 
REMARK    2  A    between atoms: O2_2  and  C7_18 
REMARK    3  A    between atoms: O3_3  and  C1_12 
REMARK    4  A    between atoms: O4_4  and  C2_13 
REMARK    5  A    between atoms: O5_5  and  C3_14 
REMARK    6  A    between atoms: O6_6  and  C6_17 
REMARK    7  A    between atoms: O9_9  and  C9_20 
REMARK    8  A    between atoms: O10_10  and  C12_23 
REMARK    9  A    between atoms: C5_16  and  C6_17 
REMARK   10  A    between atoms: C14_25  and  C16_27 
ROOT
ATOM      1  O8  UNK     1      44.519   3.003   8.475  1.00  0.00    -0.309 OA
ATOM      2  O11 UNK     1      44.458   4.132  12.390  1.00  0.00    -0.287 OA
ATOM      3  C7  UNK     1      40.956   2.598   9.122  1.00  0.00     0.110 A 
ATOM      4  C8  UNK     1      42.190   2.614   8.472  1.00  0.00     0.078 A 
ATOM      5  C9  UNK     1      40.866   2.975  10.463  1.00  0.00     0.134 A 
ATOM      6  C10 UNK     1      43.335   3.009   9.166  1.00  0.00     0.096 A 
ATOM      7  C11 UNK     1      43.242   3.383  10.505  1.00  0.00     0.084 A 
ATOM      8  C12 UNK     1      42.008   3.369  11.160  1.00  0.00     0.118 A 
ATOM      9  C13 UNK     1      44.465   3.793  11.214  1.00  0.00     0.190 A 
ATOM     10  C14 UNK     1      45.672   3.397   9.137  1.00  0.00     0.090 A 
ATOM     11  C15 UNK     1      45.713   3.774  10.425  1.00  0.00     0.094 A 
ENDROOT
BRANCH   3  12
ATOM     12  O2  UNK     1      39.843   2.212   8.434  1.00  0.00    -0.315 OA
BRANCH  12  13
ATOM     13  C4  UNK     1      39.430   0.855   8.597  1.00  0.00     0.299 C 
ATOM     14  O1  UNK     1      40.504   0.086   9.135  1.00  0.00    -0.340 OA
ATOM     15  C5  UNK     1      40.144  -1.275   9.341  1.00  0.00     0.253 C 
ATOM     16  C3  UNK     1      39.790  -1.954   8.023  1.00  0.00     0.189 C 
ATOM     17  C1  UNK     1      38.698  -1.175   7.289  1.00  0.00     0.183 C 
ATOM     18  C2  UNK     1      39.025   0.317   7.224  1.00  0.00     0.205 C 
BRANCH  15  19
ATOM     19  C6  UNK     1      41.379  -1.871   9.934  1.00  0.00     0.172 C 
ATOM     20  O7  UNK     1      41.810  -1.627  11.051  1.00  0.00    -0.648 OA
BRANCH  19  21
ATOM     21  O6  UNK     1      41.967  -2.723   9.059  1.00  0.00    -0.774 OA
ATOM     22  H10 UNK     1      42.920  -2.524   8.937  1.00  0.00     0.167 HD
ENDBRANCH  19  21
ENDBRANCH  15  19
BRANCH  16  23
ATOM     23  O5  UNK     1      39.316  -3.271   8.300  1.00  0.00    -0.390 OA
ATOM     24  H8  UNK     1      39.338  -3.403   9.263  1.00  0.00     0.210 HD
ENDBRANCH  16  23
BRANCH  17  25
ATOM     25  O3  UNK     1      38.597  -1.699   5.964  1.00  0.00    -0.390 OA
ATOM     26  H6  UNK     1      39.417  -2.183   5.773  1.00  0.00     0.210 HD
ENDBRANCH  17  25
BRANCH  18  27
ATOM     27  O4  UNK     1      37.873   1.036   6.783  1.00  0.00    -0.388 OA
ATOM     28  H7  UNK     1      37.110   0.704   7.283  1.00  0.00     0.210 HD
ENDBRANCH  18  27
ENDBRANCH  12  13
ENDBRANCH   3  12
BRANCH   5  29
ATOM     29  O9  UNK     1      39.654   2.956  11.091  1.00  0.00    -0.356 OA
ATOM     30  H12 UNK     1      39.674   3.604  11.817  1.00  0.00     0.218 HD
ENDBRANCH   5  29
BRANCH   8  31
ATOM     31  O10 UNK     1      41.879   3.729  12.468  1.00  0.00    -0.357 OA
ATOM     32  H13 UNK     1      42.633   4.268  12.752  1.00  0.00     0.217 HD
ENDBRANCH   8  31
BRANCH  10  33
ATOM     33  C16 UNK     1      46.890   3.350   8.302  1.00  0.00    -0.002 A 
ATOM     34  C17 UNK     1      48.036   4.049   8.693  1.00  0.00     0.014 A 
ATOM     35  C19 UNK     1      49.186   4.003   7.904  1.00  0.00     0.001 A 
ATOM     36  C21 UNK     1      49.195   3.260   6.724  1.00  0.00     0.000 A 
ATOM     37  C20 UNK     1      48.052   2.561   6.332  1.00  0.00     0.001 A 
ATOM     38  C18 UNK     1      46.902   2.607   7.120  1.00  0.00     0.014 A 
ENDBRANCH  10  33
TORSDOF 10
ENDMDL
MODEL 4
REMARK VINA RESULT:      -7.0      2.101      2.930
REMARK  10 active torsions:
REMARK  status: ('A' for Active; 'I' for Inactive)
REMARK    1  A    between atoms: O2_2  and  C4_15 
REMARK    2  A    between atoms: O2_2  and  C7_18 
REMARK    3  A    between atoms: O3_3  and  C1_12 
REMARK    4  A    between atoms: O4_4  and  C2_13 
REMARK    5  A    between atoms: O5_5  and  C3_14 
REMARK    6  A    between atoms: O6_6  and  C6_17 
REMARK    7  A    between atoms: O9_9  and  C9_20 
REMARK    8  A    between atoms: O10_10  and  C12_23 
REMARK    9  A    between atoms: C5_16  and  C6_17 
REMARK   10  A    between atoms: C14_25  and  C16_27 
ROOT
ATOM      1  O8  UNK     1      44.036   1.847   8.640  1.00  0.00    -0.309 OA
ATOM      2  O11 UNK     1      42.270   5.306   9.872  1.00  0.00    -0.287 OA
ATOM      3  C7  UNK     1      40.763   0.520   9.538  1.00  0.00     0.110 A 
ATOM      4  C8  UNK     1      42.083   0.599   9.095  1.00  0.00     0.078 A 
ATOM      5  C9  UNK     1      40.099   1.668   9.973  1.00  0.00     0.134 A 
ATOM      6  C10 UNK     1      42.739   1.831   9.086  1.00  0.00     0.096 A 
ATOM      7  C11 UNK     1      42.074   2.976   9.521  1.00  0.00     0.084 A 
ATOM      8  C12 UNK     1      40.752   2.901   9.965  1.00  0.00     0.118 A 
ATOM      9  C13 UNK     1      42.790   4.261   9.503  1.00  0.00     0.190 A 
ATOM     10  C14 UNK     1      44.710   3.058   8.613  1.00  0.00     0.090 A 
ATOM     11  C15 UNK     1      44.182   4.226   9.010  1.00  0.00     0.094 A 
ENDROOT
BRANCH   3  12
ATOM     12  O2  UNK     1      40.131  -0.689   9.542  1.00  0.00    -0.315 OA
BRANCH  12  13
ATOM     13  C4  UNK     1      39.323  -0.992   8.404  1.00  0.00     0.299 C 
ATOM     14  O1  UNK     1      37.951  -0.758   8.712  1.00  0.00    -0.340 OA
ATOM     15  C5  UNK     1      37.095  -1.022   7.606  1.00  0.00     0.253 C 
ATOM     16  C3  UNK     1      37.167  -2.488   7.195  1.00  0.00     0.189 C 
ATOM     17  C1  UNK     1      38.612  -2.903   6.918  1.00  0.00     0.183 C 
ATOM     18  C2  UNK     1      39.546  -2.461   8.045  1.00  0.00     0.205 C 
BRANCH  15  19
ATOM     19  C6  UNK     1      35.739  -0.680   8.131  1.00  0.00     0.172 C 
ATOM     20  O7  UNK     1      35.347  -0.911   9.266  1.00  0.00    -0.648 OA
BRANCH  19  21
ATOM     21  O6  UNK     1      34.993  -0.077   7.174  1.00  0.00    -0.774 OA
ATOM     22  H10 UNK     1      34.928   0.892   7.315  1.00  0.00     0.167 HD
ENDBRANCH  19  21
ENDBRANCH  15  19
BRANCH  16  23
ATOM     23  O5  UNK     1      36.394  -2.669   6.010  1.00  0.00    -0.390 OA
ATOM     24  H8  UNK     1      36.589  -3.554   5.655  1.00  0.00     0.210 HD
ENDBRANCH  16  23
BRANCH  17  25
ATOM     25  O3  UNK     1      38.649  -4.326   6.799  1.00  0.00    -0.390 OA
ATOM     26  H6  UNK     1      37.789  -4.616   6.452  1.00  0.00     0.210 HD
ENDBRANCH  17  25
BRANCH  18  27
ATOM     27  O4  UNK     1      40.902  -2.619   7.627  1.00  0.00    -0.388 OA
ATOM     28  H7  UNK     1      41.073  -1.965   6.929  1.00  0.00     0.210 HD
ENDBRANCH  18  27
ENDBRANCH  12  13
ENDBRANCH   3  12
BRANCH   5  29
ATOM     29  O9  UNK     1      38.808   1.581  10.406  1.00  0.00    -0.356 OA
ATOM     30  H12 UNK     1      38.300   1.063   9.757  1.00  0.00     0.218 HD
ENDBRANCH   5  29
BRANCH   8  31
ATOM     31  O10 UNK     1      40.071   4.000  10.397  1.00  0.00    -0.357 OA
ATOM     32  H13 UNK     1      39.806   4.556   9.649  1.00  0.00     0.217 HD
ENDBRANCH   8  31
BRANCH  10  33
ATOM     33  C16 UNK     1      46.099   2.960   8.120  1.00  0.00    -0.002 A 
ATOM     34  C17 UNK     1      46.431   2.023   7.139  1.00  0.00     0.014 A 
ATOM     35  C19 UNK     1      47.743   1.932   6.673  1.00  0.00     0.001 A 
ATOM     36  C21 UNK     1      48.726   2.777   7.185  1.00  0.00     0.000 A 
ATOM     37  C20 UNK     1      48.399   3.714   8.166  1.00  0.00     0.001 A 
ATOM     38  C18 UNK     1      47.087   3.805   8.632  1.00  0.00     0.014 A 
ENDBRANCH  10  33
TORSDOF 10
ENDMDL
MODEL 5
REMARK VINA RESULT:      -6.9      1.261      1.960
REMARK  10 active torsions:
REMARK  status: ('A' for Active; 'I' for Inactive)
REMARK    1  A    between atoms: O2_2  and  C4_15 
REMARK    2  A    between atoms: O2_2  and  C7_18 
REMARK    3  A    between atoms: O3_3  and  C1_12 
REMARK    4  A    between atoms: O4_4  and  C2_13 
REMARK    5  A    between atoms: O5_5  and  C3_14 
REMARK    6  A    between atoms: O6_6  and  C6_17 
REMARK    7  A    between atoms: O9_9  and  C9_20 
REMARK    8  A    between atoms: O10_10  and  C12_23 
REMARK    9  A    between atoms: C5_16  and  C6_17 
REMARK   10  A    between atoms: C14_25  and  C16_27 
ROOT
ATOM      1  O8  UNK     1      44.131   2.414   7.968  1.00  0.00    -0.309 OA
ATOM      2  O11 UNK     1      42.664   5.394  10.328  1.00  0.00    -0.287 OA
ATOM      3  C7  UNK     1      40.640   1.377   8.078  1.00  0.00     0.110 A 
ATOM      4  C8  UNK     1      42.003   1.409   7.783  1.00  0.00     0.078 A 
ATOM      5  C9  UNK     1      40.073   2.369   8.880  1.00  0.00     0.134 A 
ATOM      6  C10 UNK     1      42.799   2.436   8.292  1.00  0.00     0.096 A 
ATOM      7  C11 UNK     1      42.231   3.425   9.093  1.00  0.00     0.084 A 
ATOM      8  C12 UNK     1      40.866   3.397   9.390  1.00  0.00     0.118 A 
ATOM      9  C13 UNK     1      43.094   4.495   9.617  1.00  0.00     0.190 A 
ATOM     10  C14 UNK     1      44.946   3.426   8.454  1.00  0.00     0.090 A 
ATOM     11  C15 UNK     1      44.519   4.429   9.237  1.00  0.00     0.094 A 
ENDROOT
BRANCH   3  12
ATOM     12  O2  UNK     1      39.870   0.369   7.575  1.00  0.00    -0.315 OA
BRANCH  12  13
ATOM     13  C4  UNK     1      39.351  -0.570   8.518  1.00  0.00     0.299 C 
ATOM     14  O1  UNK     1      40.406  -1.052   9.347  1.00  0.00    -0.340 OA
ATOM     15  C5  UNK     1      39.945  -1.978  10.325  1.00  0.00     0.253 C 
ATOM     16  C3  UNK     1      39.356  -3.220   9.667  1.00  0.00     0.189 C 
ATOM     17  C1  UNK     1      38.259  -2.839   8.673  1.00  0.00     0.183 C 
ATOM     18  C2  UNK     1      38.719  -1.722   7.736  1.00  0.00     0.205 C 
BRANCH  15  19
ATOM     19  C6  UNK     1      41.184  -2.314  11.090  1.00  0.00     0.172 C 
ATOM     20  O7  UNK     1      41.611  -1.683  12.046  1.00  0.00    -0.648 OA
BRANCH  19  21
ATOM     21  O6  UNK     1      41.778  -3.419  10.578  1.00  0.00    -0.774 OA
ATOM     22  H10 UNK     1      41.469  -4.239  11.018  1.00  0.00     0.167 HD
ENDBRANCH  19  21
ENDBRANCH  15  19
BRANCH  16  23
ATOM     23  O5  UNK     1      38.797  -4.053  10.682  1.00  0.00    -0.390 OA
ATOM     24  H8  UNK     1      39.300  -4.885  10.701  1.00  0.00     0.210 HD
ENDBRANCH  16  23
BRANCH  17  25
ATOM     25  O3  UNK     1      37.934  -4.000   7.907  1.00  0.00    -0.390 OA
ATOM     26  H6  UNK     1      38.427  -4.749   8.281  1.00  0.00     0.210 HD
ENDBRANCH  17  25
BRANCH  18  27
ATOM     27  O4  UNK     1      37.595  -1.213   7.018  1.00  0.00    -0.388 OA
ATOM     28  H7  UNK     1      37.054  -1.971   6.742  1.00  0.00     0.210 HD
ENDBRANCH  18  27
ENDBRANCH  12  13
ENDBRANCH   3  12
BRANCH   5  29
ATOM     29  O9  UNK     1      38.739   2.331   9.164  1.00  0.00    -0.356 OA
ATOM     30  H12 UNK     1      38.328   3.144   8.822  1.00  0.00     0.218 HD
ENDBRANCH   5  29
BRANCH   8  31
ATOM     31  O10 UNK     1      40.277   4.347  10.169  1.00  0.00    -0.357 OA
ATOM     32  H13 UNK     1      40.944   4.853  10.659  1.00  0.00     0.217 HD
ENDBRANCH   8  31
BRANCH  10  33
ATOM     33  C16 UNK     1      46.361   3.303   8.050  1.00  0.00    -0.002 A 
ATOM     34  C17 UNK     1      46.722   2.440   7.012  1.00  0.00     0.014 A 
ATOM     35  C19 UNK     1      48.059   2.325   6.630  1.00  0.00     0.001 A 
ATOM     36  C21 UNK     1      49.038   3.073   7.282  1.00  0.00     0.000 A 
ATOM     37  C20 UNK     1      48.682   3.936   8.319  1.00  0.00     0.001 A 
ATOM     38  C18 UNK     1      47.345   4.050   8.701  1.00  0.00     0.014 A 
ENDBRANCH  10  33
TORSDOF 10
ENDMDL
MODEL 6
REMARK VINA RESULT:      -6.9      2.797      3.554
REMARK  10 active torsions:
REMARK  status: ('A' for Active; 'I' for Inactive)
REMARK    1  A    between atoms: O2_2  and  C4_15 
REMARK    2  A    between atoms: O2_2  and  C7_18 
REMARK    3  A    between atoms: O3_3  and  C1_12 
REMARK    4  A    between atoms: O4_4  and  C2_13 
REMARK    5  A    between atoms: O5_5  and  C3_14 
REMARK    6  A    between atoms: O6_6  and  C6_17 
REMARK    7  A    between atoms: O9_9  and  C9_20 
REMARK    8  A    between atoms: O10_10  and  C12_23 
REMARK    9  A    between atoms: C5_16  and  C6_17 
REMARK   10  A    between atoms: C14_25  and  C16_27 
ROOT
ATOM      1  O8  UNK     1      43.582   0.848   8.584  1.00  0.00    -0.309 OA
ATOM      2  O11 UNK     1      41.815   4.334   9.735  1.00  0.00    -0.287 OA
ATOM      3  C7  UNK     1      40.231  -0.415   9.258  1.00  0.00     0.110 A 
ATOM      4  C8  UNK     1      41.578  -0.361   8.901  1.00  0.00     0.078 A 
ATOM      5  C9  UNK     1      39.565   0.744   9.660  1.00  0.00     0.134 A 
ATOM      6  C10 UNK     1      42.259   0.857   8.946  1.00  0.00     0.096 A 
ATOM      7  C11 UNK     1      41.593   2.012   9.349  1.00  0.00     0.084 A 
ATOM      8  C12 UNK     1      40.243   1.962   9.707  1.00  0.00     0.118 A 
ATOM      9  C13 UNK     1      42.335   3.281   9.389  1.00  0.00     0.190 A 
ATOM     10  C14 UNK     1      44.283   2.044   8.613  1.00  0.00     0.090 A 
ATOM     11  C15 UNK     1      43.755   3.220   8.987  1.00  0.00     0.094 A 
ENDROOT
BRANCH   3  12
ATOM     12  O2  UNK     1      39.574  -1.610   9.209  1.00  0.00    -0.315 OA
BRANCH  12  13
ATOM     13  C4  UNK     1      38.647  -1.786   8.138  1.00  0.00     0.299 C 
ATOM     14  O1  UNK     1      37.343  -2.021   8.664  1.00  0.00    -0.340 OA
ATOM     15  C5  UNK     1      36.367  -2.183   7.640  1.00  0.00     0.253 C 
ATOM     16  C3  UNK     1      36.675  -3.403   6.779  1.00  0.00     0.189 C 
ATOM     17  C1  UNK     1      38.094  -3.324   6.215  1.00  0.00     0.183 C 
ATOM     18  C2  UNK     1      39.109  -2.983   7.306  1.00  0.00     0.205 C 
BRANCH  15  19
ATOM     19  C6  UNK     1      35.097  -2.374   8.403  1.00  0.00     0.172 C 
ATOM     20  O7  UNK     1      34.427  -1.474   8.887  1.00  0.00    -0.648 OA
BRANCH  19  21
ATOM     21  O6  UNK     1      34.784  -3.690   8.490  1.00  0.00    -0.774 OA
ATOM     22  H10 UNK     1      35.481  -4.259   8.099  1.00  0.00     0.167 HD
ENDBRANCH  19  21
ENDBRANCH  15  19
BRANCH  16  23
ATOM     23  O5  UNK     1      35.746  -3.445   5.697  1.00  0.00    -0.390 OA
ATOM     24  H8  UNK     1      35.063  -4.104   5.911  1.00  0.00     0.210 HD
ENDBRANCH  16  23
BRANCH  17  25
ATOM     25  O3  UNK     1      38.415  -4.595   5.646  1.00  0.00    -0.390 OA
ATOM     26  H6  UNK     1      39.302  -4.529   5.257  1.00  0.00     0.210 HD
ENDBRANCH  17  25
BRANCH  18  27
ATOM     27  O4  UNK     1      40.360  -2.652   6.703  1.00  0.00    -0.388 OA
ATOM     28  H7  UNK     1      41.064  -2.923   7.316  1.00  0.00     0.210 HD
ENDBRANCH  18  27
ENDBRANCH  12  13
ENDBRANCH   3  12
BRANCH   5  29
ATOM     29  O9  UNK     1      38.247   0.682  10.009  1.00  0.00    -0.356 OA
ATOM     30  H12 UNK     1      37.952  -0.243   9.935  1.00  0.00     0.218 HD
ENDBRANCH   5  29
BRANCH   8  31
ATOM     31  O10 UNK     1      39.560   3.072  10.105  1.00  0.00    -0.357 OA
ATOM     32  H13 UNK     1      40.052   3.553  10.788  1.00  0.00     0.217 HD
ENDBRANCH   8  31
BRANCH  10  33
ATOM     33  C16 UNK     1      45.698   1.920   8.209  1.00  0.00    -0.002 A 
ATOM     34  C17 UNK     1      46.157   2.560   7.055  1.00  0.00     0.014 A 
ATOM     35  C19 UNK     1      47.494   2.444   6.675  1.00  0.00     0.001 A 
ATOM     36  C21 UNK     1      48.377   1.689   7.447  1.00  0.00     0.000 A 
ATOM     37  C20 UNK     1      47.922   1.049   8.600  1.00  0.00     0.001 A 
ATOM     38  C18 UNK     1      46.585   1.165   8.980  1.00  0.00     0.014 A 
ENDBRANCH  10  33
TORSDOF 10
ENDMDL
MODEL 7
REMARK VINA RESULT:      -6.9      1.994      2.989
REMARK  10 active torsions:
REMARK  status: ('A' for Active; 'I' for Inactive)
REMARK    1  A    between atoms: O2_2  and  C4_15 
REMARK    2  A    between atoms: O2_2  and  C7_18 
REMARK    3  A    between atoms: O3_3  and  C1_12 
REMARK    4  A    between atoms: O4_4  and  C2_13 
REMARK    5  A    between atoms: O5_5  and  C3_14 
REMARK    6  A    between atoms: O6_6  and  C6_17 
REMARK    7  A    between atoms: O9_9  and  C9_20 
REMARK    8  A    between atoms: O10_10  and  C12_23 
REMARK    9  A    between atoms: C5_16  and  C6_17 
REMARK   10  A    between atoms: C14_25  and  C16_27 
ROOT
ATOM      1  O8  UNK     1      45.476   2.671   8.987  1.00  0.00    -0.309 OA
ATOM      2  O11 UNK     1      43.504   6.104   9.951  1.00  0.00    -0.287 OA
ATOM      3  C7  UNK     1      42.233   1.240   9.831  1.00  0.00     0.110 A 
ATOM      4  C8  UNK     1      43.565   1.358   9.436  1.00  0.00     0.078 A 
ATOM      5  C9  UNK     1      41.500   2.377  10.174  1.00  0.00     0.134 A 
ATOM      6  C10 UNK     1      44.164   2.618   9.382  1.00  0.00     0.096 A 
ATOM      7  C11 UNK     1      43.430   3.752   9.725  1.00  0.00     0.084 A 
ATOM      8  C12 UNK     1      42.096   3.638  10.122  1.00  0.00     0.118 A 
ATOM      9  C13 UNK     1      44.087   5.067   9.662  1.00  0.00     0.190 A 
ATOM     10  C14 UNK     1      46.095   3.910   8.918  1.00  0.00     0.090 A 
ATOM     11  C15 UNK     1      45.498   5.071   9.227  1.00  0.00     0.094 A 
ENDROOT
BRANCH   3  12
ATOM     12  O2  UNK     1      41.657   0.004   9.880  1.00  0.00    -0.315 OA
BRANCH  12  13
ATOM     13  C4  UNK     1      41.072  -0.476   8.669  1.00  0.00     0.299 C 
ATOM     14  O1  UNK     1      39.896   0.273   8.372  1.00  0.00    -0.340 OA
ATOM     15  C5  UNK     1      39.279  -0.146   7.160  1.00  0.00     0.253 C 
ATOM     16  C3  UNK     1      38.815  -1.595   7.255  1.00  0.00     0.189 C 
ATOM     17  C1  UNK     1      39.971  -2.509   7.658  1.00  0.00     0.183 C 
ATOM     18  C2  UNK     1      40.728  -1.953   8.865  1.00  0.00     0.205 C 
BRANCH  15  19
ATOM     19  C6  UNK     1      38.114   0.781   7.030  1.00  0.00     0.172 C 
ATOM     20  O7  UNK     1      37.097   0.730   7.705  1.00  0.00    -0.648 OA
BRANCH  19  21
ATOM     21  O6  UNK     1      38.336   1.692   6.051  1.00  0.00    -0.774 OA
ATOM     22  H10 UNK     1      38.634   2.554   6.413  1.00  0.00     0.167 HD
ENDBRANCH  19  21
ENDBRANCH  15  19
BRANCH  16  23
ATOM     23  O5  UNK     1      38.322  -2.001   5.979  1.00  0.00    -0.390 OA
ATOM     24  H8  UNK     1      37.763  -2.787   6.108  1.00  0.00     0.210 HD
ENDBRANCH  16  23
BRANCH  17  25
ATOM     25  O3  UNK     1      39.430  -3.790   7.985  1.00  0.00    -0.390 OA
ATOM     26  H6  UNK     1      40.094  -4.460   7.754  1.00  0.00     0.210 HD
ENDBRANCH  17  25
BRANCH  18  27
ATOM     27  O4  UNK     1      41.946  -2.678   9.036  1.00  0.00    -0.388 OA
ATOM     28  H7  UNK     1      41.718  -3.616   9.140  1.00  0.00     0.210 HD
ENDBRANCH  18  27
ENDBRANCH  12  13
ENDBRANCH   3  12
BRANCH   5  29
ATOM     29  O9  UNK     1      40.197   2.253  10.560  1.00  0.00    -0.356 OA
ATOM     30  H12 UNK     1      40.041   2.850  11.312  1.00  0.00     0.218 HD
ENDBRANCH   5  29
BRANCH   8  31
ATOM     31  O10 UNK     1      41.348   4.725  10.463  1.00  0.00    -0.357 OA
ATOM     32  H13 UNK     1      40.539   4.767   9.931  1.00  0.00     0.217 HD
ENDBRANCH   8  31
BRANCH  10  33
ATOM     33  C16 UNK     1      47.507   3.852   8.486  1.00  0.00    -0.002 A 
ATOM     34  C17 UNK     1      47.851   3.196   7.301  1.00  0.00     0.014 A 
ATOM     35  C19 UNK     1      49.184   3.143   6.893  1.00  0.00     0.001 A 
ATOM     36  C21 UNK     1      50.176   3.745   7.666  1.00  0.00     0.000 A 
ATOM     37  C20 UNK     1      49.835   4.401   8.850  1.00  0.00     0.001 A 
ATOM     38  C18 UNK     1      48.502   4.454   9.258  1.00  0.00     0.014 A 
ENDBRANCH  10  33
TORSDOF 10
ENDMDL
MODEL 8
REMARK VINA RESULT:      -6.7      5.353      9.267
REMARK  10 active torsions:
REMARK  status: ('A' for Active; 'I' for Inactive)
REMARK    1  A    between atoms: O2_2  and  C4_15 
REMARK    2  A    between atoms: O2_2  and  C7_18 
REMARK    3  A    between atoms: O3_3  and  C1_12 
REMARK    4  A    between atoms: O4_4  and  C2_13 
REMARK    5  A    between atoms: O5_5  and  C3_14 
REMARK    6  A    between atoms: O6_6  and  C6_17 
REMARK    7  A    between atoms: O9_9  and  C9_20 
REMARK    8  A    between atoms: O10_10  and  C12_23 
REMARK    9  A    between atoms: C5_16  and  C6_17 
REMARK   10  A    between atoms: C14_25  and  C16_27 
ROOT
ATOM      1  O8  UNK     1      38.026  -5.231   5.282  1.00  0.00    -0.309 OA
ATOM      2  O11 UNK     1      34.202  -4.128   6.154  1.00  0.00    -0.287 OA
ATOM      3  C7  UNK     1      38.733  -2.203   7.183  1.00  0.00     0.110 A 
ATOM      4  C8  UNK     1      38.907  -3.366   6.433  1.00  0.00     0.078 A 
ATOM      5  C9  UNK     1      37.449  -1.771   7.518  1.00  0.00     0.134 A 
ATOM      6  C10 UNK     1      37.793  -4.097   6.017  1.00  0.00     0.096 A 
ATOM      7  C11 UNK     1      36.512  -3.663   6.352  1.00  0.00     0.084 A 
ATOM      8  C12 UNK     1      36.333  -2.499   7.104  1.00  0.00     0.118 A 
ATOM      9  C13 UNK     1      35.355  -4.451   5.900  1.00  0.00     0.190 A 
ATOM     10  C14 UNK     1      36.939  -5.981   4.862  1.00  0.00     0.090 A 
ATOM     11  C15 UNK     1      35.659  -5.665   5.115  1.00  0.00     0.094 A 
ENDROOT
BRANCH   3  12
ATOM     12  O2  UNK     1      39.828  -1.497   7.585  1.00  0.00    -0.315 OA
BRANCH  12  13
ATOM     13  C4  UNK     1      40.445  -1.911   8.805  1.00  0.00     0.299 C 
ATOM     14  O1  UNK     1      39.444  -2.314   9.737  1.00  0.00    -0.340 OA
ATOM     15  C5  UNK     1      40.000  -2.761  10.968  1.00  0.00     0.253 C 
ATOM     16  C3  UNK     1      40.764  -1.639  11.663  1.00  0.00     0.189 C 
ATOM     17  C1  UNK     1      41.823  -1.048  10.733  1.00  0.00     0.183 C 
ATOM     18  C2  UNK     1      41.242  -0.729   9.356  1.00  0.00     0.205 C 
BRANCH  15  19
ATOM     19  C6  UNK     1      38.800  -3.162  11.762  1.00  0.00     0.172 C 
ATOM     20  O7  UNK     1      38.729  -3.152  12.982  1.00  0.00    -0.648 OA
BRANCH  19  21
ATOM     21  O6  UNK     1      37.791  -3.545  10.942  1.00  0.00    -0.774 OA
ATOM     22  H10 UNK     1      37.764  -3.013  10.119  1.00  0.00     0.167 HD
ENDBRANCH  19  21
ENDBRANCH  15  19
BRANCH  16  23
ATOM     23  O5  UNK     1      41.404  -2.172  12.821  1.00  0.00    -0.390 OA
ATOM     24  H8  UNK     1      41.034  -1.726  13.602  1.00  0.00     0.210 HD
ENDBRANCH  16  23
BRANCH  17  25
ATOM     25  O3  UNK     1      42.317   0.152  11.332  1.00  0.00    -0.390 OA
ATOM     26  H6  UNK     1      41.576   0.776  11.396  1.00  0.00     0.210 HD
ENDBRANCH  17  25
BRANCH  18  27
ATOM     27  O4  UNK     1      42.305  -0.442   8.447  1.00  0.00    -0.388 OA
ATOM     28  H7  UNK     1      43.129  -0.764   8.848  1.00  0.00     0.210 HD
ENDBRANCH  18  27
ENDBRANCH  12  13
ENDBRANCH   3  12
BRANCH   5  29
ATOM     29  O9  UNK     1      37.287  -0.632   8.252  1.00  0.00    -0.356 OA
ATOM     30  H12 UNK     1      37.100   0.103   7.642  1.00  0.00     0.218 HD
ENDBRANCH   5  29
BRANCH   8  31
ATOM     31  O10 UNK     1      35.095  -2.045   7.449  1.00  0.00    -0.357 OA
ATOM     32  H13 UNK     1      34.419  -2.712   7.258  1.00  0.00     0.217 HD
ENDBRANCH   8  31
BRANCH  10  33
ATOM     33  C16 UNK     1      37.303  -7.177   4.075  1.00  0.00    -0.002 A 
ATOM     34  C17 UNK     1      36.424  -7.676   3.109  1.00  0.00     0.014 A 
ATOM     35  C19 UNK     1      36.769  -8.805   2.365  1.00  0.00     0.001 A 
ATOM     36  C21 UNK     1      37.992  -9.438   2.583  1.00  0.00     0.000 A 
ATOM     37  C20 UNK     1      38.871  -8.943   3.547  1.00  0.00     0.001 A 
ATOM     38  C18 UNK     1      38.527  -7.814   4.290  1.00  0.00     0.014 A 
ENDBRANCH  10  33
TORSDOF 10
ENDMDL
MODEL 9
REMARK VINA RESULT:      -6.7      1.635      2.863
REMARK  10 active torsions:
REMARK  status: ('A' for Active; 'I' for Inactive)
REMARK    1  A    between atoms: O2_2  and  C4_15 
REMARK    2  A    between atoms: O2_2  and  C7_18 
REMARK    3  A    between atoms: O3_3  and  C1_12 
REMARK    4  A    between atoms: O4_4  and  C2_13 
REMARK    5  A    between atoms: O5_5  and  C3_14 
REMARK    6  A    between atoms: O6_6  and  C6_17 
REMARK    7  A    between atoms: O9_9  and  C9_20 
REMARK    8  A    between atoms: O10_10  and  C12_23 
REMARK    9  A    between atoms: C5_16  and  C6_17 
REMARK   10  A    between atoms: C14_25  and  C16_27 
ROOT
ATOM      1  O8  UNK     1      44.976   2.857   9.459  1.00  0.00    -0.309 OA
ATOM      2  O11 UNK     1      43.778   6.750   9.391  1.00  0.00    -0.287 OA
ATOM      3  C7  UNK     1      41.420   2.362  10.080  1.00  0.00     0.110 A 
ATOM      4  C8  UNK     1      42.776   2.107   9.874  1.00  0.00     0.078 A 
ATOM      5  C9  UNK     1      40.943   3.674  10.067  1.00  0.00     0.134 A 
ATOM      6  C10 UNK     1      43.655   3.169   9.655  1.00  0.00     0.096 A 
ATOM      7  C11 UNK     1      43.177   4.478   9.643  1.00  0.00     0.084 A 
ATOM      8  C12 UNK     1      41.820   4.737   9.849  1.00  0.00     0.118 A 
ATOM      9  C13 UNK     1      44.127   5.577   9.412  1.00  0.00     0.190 A 
ATOM     10  C14 UNK     1      45.872   3.890   9.232  1.00  0.00     0.090 A 
ATOM     11  C15 UNK     1      45.536   5.189   9.203  1.00  0.00     0.094 A 
ENDROOT
BRANCH   3  12
ATOM     12  O2  UNK     1      40.568   1.318  10.292  1.00  0.00    -0.315 OA
BRANCH  12  13
ATOM     13  C4  UNK     1      41.123   0.007  10.177  1.00  0.00     0.299 C 
ATOM     14  O1  UNK     1      40.375  -0.750   9.227  1.00  0.00    -0.340 OA
ATOM     15  C5  UNK     1      40.895  -2.063   9.052  1.00  0.00     0.253 C 
ATOM     16  C3  UNK     1      40.817  -2.861  10.348  1.00  0.00     0.189 C 
ATOM     17  C1  UNK     1      41.510  -2.114  11.487  1.00  0.00     0.183 C 
ATOM     18  C2  UNK     1      41.059  -0.655  11.554  1.00  0.00     0.205 C 
BRANCH  15  19
ATOM     19  C6  UNK     1      40.002  -2.649   8.007  1.00  0.00     0.172 C 
ATOM     20  O7  UNK     1      38.938  -3.208   8.227  1.00  0.00    -0.648 OA
BRANCH  19  21
ATOM     21  O6  UNK     1      40.535  -2.481   6.772  1.00  0.00    -0.774 OA
ATOM     22  H10 UNK     1      40.075  -3.024   6.097  1.00  0.00     0.167 HD
ENDBRANCH  19  21
ENDBRANCH  15  19
BRANCH  16  23
ATOM     23  O5  UNK     1      41.464  -4.117  10.151  1.00  0.00    -0.390 OA
ATOM     24  H8  UNK     1      41.204  -4.457   9.278  1.00  0.00     0.210 HD
ENDBRANCH  16  23
BRANCH  17  25
ATOM     25  O3  UNK     1      41.180  -2.771  12.712  1.00  0.00    -0.390 OA
ATOM     26  H6  UNK     1      40.449  -3.384  12.531  1.00  0.00     0.210 HD
ENDBRANCH  17  25
BRANCH  18  27
ATOM     27  O4  UNK     1      41.919   0.067  12.437  1.00  0.00    -0.388 OA
ATOM     28  H7  UNK     1      41.394   0.325  13.212  1.00  0.00     0.210 HD
ENDBRANCH  18  27
ENDBRANCH  12  13
ENDBRANCH   3  12
BRANCH   5  29
ATOM     29  O9  UNK     1      39.615   3.914  10.270  1.00  0.00    -0.356 OA
ATOM     30  H12 UNK     1      39.394   3.671  11.186  1.00  0.00     0.218 HD
ENDBRANCH   5  29
BRANCH   8  31
ATOM     31  O10 UNK     1      41.318   6.004   9.844  1.00  0.00    -0.357 OA
ATOM     32  H13 UNK     1      41.856   6.585   9.286  1.00  0.00     0.217 HD
ENDBRANCH   8  31
BRANCH  10  33
ATOM     33  C16 UNK     1      47.267   3.443   9.039  1.00  0.00    -0.002 A 
ATOM     34  C17 UNK     1      48.252   4.361   8.661  1.00  0.00     0.014 A 
ATOM     35  C19 UNK     1      49.569   3.939   8.480  1.00  0.00     0.001 A 
ATOM     36  C21 UNK     1      49.907   2.600   8.677  1.00  0.00     0.000 A 
ATOM     37  C20 UNK     1      48.926   1.682   9.054  1.00  0.00     0.001 A 
ATOM     38  C18 UNK     1      47.609   2.104   9.235  1.00  0.00     0.014 A 
ENDBRANCH  10  33
TORSDOF 10
ENDMDL
MODEL 10
REMARK VINA RESULT:      -6.7      2.573      4.994
REMARK  10 active torsions:
REMARK  status: ('A' for Active; 'I' for Inactive)
REMARK    1  A    between atoms: O2_2  and  C4_15 
REMARK    2  A    between atoms: O2_2  and  C7_18 
REMARK    3  A    between atoms: O3_3  and  C1_12 
REMARK    4  A    between atoms: O4_4  and  C2_13 
REMARK    5  A    between atoms: O5_5  and  C3_14 
REMARK    6  A    between atoms: O6_6  and  C6_17 
REMARK    7  A    between atoms: O9_9  and  C9_20 
REMARK    8  A    between atoms: O10_10  and  C12_23 
REMARK    9  A    between atoms: C5_16  and  C6_17 
REMARK   10  A    between atoms: C14_25  and  C16_27 
ROOT
ATOM      1  O8  UNK     1      42.857   4.526  10.553  1.00  0.00    -0.309 OA
ATOM      2  O11 UNK     1      46.703   3.891   9.370  1.00  0.00    -0.287 OA
ATOM      3  C7  UNK     1      42.233   2.149   7.862  1.00  0.00     0.110 A 
ATOM      4  C8  UNK     1      42.028   3.037   8.918  1.00  0.00     0.078 A 
ATOM      5  C9  UNK     1      43.527   1.886   7.409  1.00  0.00     0.134 A 
ATOM      6  C10 UNK     1      43.121   3.663   9.521  1.00  0.00     0.096 A 
ATOM      7  C11 UNK     1      44.411   3.399   9.066  1.00  0.00     0.084 A 
ATOM      8  C12 UNK     1      44.621   2.510   8.009  1.00  0.00     0.118 A 
ATOM      9  C13 UNK     1      45.544   4.073   9.718  1.00  0.00     0.190 A 
ATOM     10  C14 UNK     1      43.923   5.157  11.175  1.00  0.00     0.090 A 
ATOM     11  C15 UNK     1      45.208   4.990  10.826  1.00  0.00     0.094 A 
ENDROOT
BRANCH   3  12
ATOM     12  O2  UNK     1      41.159   1.542   7.281  1.00  0.00    -0.315 OA
BRANCH  12  13
ATOM     13  C4  UNK     1      40.338   0.742   8.132  1.00  0.00     0.299 C 
ATOM     14  O1  UNK     1      41.110  -0.322   8.683  1.00  0.00    -0.340 OA
ATOM     15  C5  UNK     1      40.349  -1.144   9.561  1.00  0.00     0.253 C 
ATOM     16  C3  UNK     1      39.205  -1.825   8.819  1.00  0.00     0.189 C 
ATOM     17  C1  UNK     1      38.337  -0.794   8.099  1.00  0.00     0.183 C 
ATOM     18  C2  UNK     1      39.188   0.186   7.292  1.00  0.00     0.205 C 
BRANCH  15  19
ATOM     19  C6  UNK     1      41.347  -2.147  10.043  1.00  0.00     0.172 C 
ATOM     20  O7  UNK     1      41.621  -2.357  11.215  1.00  0.00    -0.648 OA
BRANCH  19  21
ATOM     21  O6  UNK     1      41.914  -2.798   8.998  1.00  0.00    -0.774 OA
ATOM     22  H10 UNK     1      42.887  -2.875   9.099  1.00  0.00     0.167 HD
ENDBRANCH  19  21
ENDBRANCH  15  19
BRANCH  16  23
ATOM     23  O5  UNK     1      38.403  -2.531   9.765  1.00  0.00    -0.390 OA
ATOM     24  H8  UNK     1      37.486  -2.223   9.672  1.00  0.00     0.210 HD
ENDBRANCH  16  23
BRANCH  17  25
ATOM     25  O3  UNK     1      37.455  -1.495   7.220  1.00  0.00    -0.390 OA
ATOM     26  H6  UNK     1      37.905  -2.308   6.937  1.00  0.00     0.210 HD
ENDBRANCH  17  25
BRANCH  18  27
ATOM     27  O4  UNK     1      38.376   1.280   6.865  1.00  0.00    -0.388 OA
ATOM     28  H7  UNK     1      37.804   0.960   6.147  1.00  0.00     0.210 HD
ENDBRANCH  18  27
ENDBRANCH  12  13
ENDBRANCH   3  12
BRANCH   5  29
ATOM     29  O9  UNK     1      43.719   1.015   6.376  1.00  0.00    -0.356 OA
ATOM     30  H12 UNK     1      44.566   1.229   5.947  1.00  0.00     0.218 HD
ENDBRANCH   5  29
BRANCH   8  31
ATOM     31  O10 UNK     1      45.869   2.227   7.539  1.00  0.00    -0.357 OA
ATOM     32  H13 UNK     1      46.542   2.714   8.038  1.00  0.00     0.217 HD
ENDBRANCH   8  31
BRANCH  10  33
ATOM     33  C16 UNK     1      43.527   6.067  12.269  1.00  0.00    -0.002 A 
ATOM     34  C17 UNK     1      43.218   7.402  11.994  1.00  0.00     0.014 A 
ATOM     35  C19 UNK     1      42.842   8.261  13.027  1.00  0.00     0.001 A 
ATOM     36  C21 UNK     1      42.774   7.789  14.337  1.00  0.00     0.000 A 
ATOM     37  C20 UNK     1      43.082   6.457  14.616  1.00  0.00     0.001 A 
ATOM     38  C18 UNK     1      43.457   5.598  13.583  1.00  0.00     0.014 A 
ENDBRANCH  10  33
TORSDOF 10
ENDMDL
MODEL 11
REMARK VINA RESULT:      -6.7      2.600      3.890
REMARK  10 active torsions:
REMARK  status: ('A' for Active; 'I' for Inactive)
REMARK    1  A    between atoms: O2_2  and  C4_15 
REMARK    2  A    between atoms: O2_2  and  C7_18 
REMARK    3  A    between atoms: O3_3  and  C1_12 
REMARK    4  A    between atoms: O4_4  and  C2_13 
REMARK    5  A    between atoms: O5_5  and  C3_14 
REMARK    6  A    between atoms: O6_6  and  C6_17 
REMARK    7  A    between atoms: O9_9  and  C9_20 
REMARK    8  A    between atoms: O10_10  and  C12_23 
REMARK    9  A    between atoms: C5_16  and  C6_17 
REMARK   10  A    between atoms: C14_25  and  C16_27 
ROOT
ATOM      1  O8  UNK     1      43.296   1.716   8.466  1.00  0.00    -0.309 OA
ATOM      2  O11 UNK     1      42.790   3.517  12.085  1.00  0.00    -0.287 OA
ATOM      3  C7  UNK     1      39.663   1.527   8.686  1.00  0.00     0.110 A 
ATOM      4  C8  UNK     1      40.969   1.395   8.215  1.00  0.00     0.078 A 
ATOM      5  C9  UNK     1      39.420   2.136   9.918  1.00  0.00     0.134 A 
ATOM      6  C10 UNK     1      42.034   1.875   8.980  1.00  0.00     0.096 A 
ATOM      7  C11 UNK     1      41.789   2.482  10.210  1.00  0.00     0.084 A 
ATOM      8  C12 UNK     1      40.482   2.616  10.685  1.00  0.00     0.118 A 
ATOM      9  C13 UNK     1      42.930   2.976  10.996  1.00  0.00     0.190 A 
ATOM     10  C14 UNK     1      44.372   2.189   9.200  1.00  0.00     0.090 A 
ATOM     11  C15 UNK     1      44.267   2.785  10.398  1.00  0.00     0.094 A 
ENDROOT
BRANCH   3  12
ATOM     12  O2  UNK     1      38.629   1.056   7.931  1.00  0.00    -0.315 OA
BRANCH  12  13
ATOM     13  C4  UNK     1      38.161  -0.258   8.236  1.00  0.00     0.299 C 
ATOM     14  O1  UNK     1      38.688  -1.188   7.293  1.00  0.00    -0.340 OA
ATOM     15  C5  UNK     1      38.273  -2.523   7.560  1.00  0.00     0.253 C 
ATOM     16  C3  UNK     1      36.759  -2.658   7.450  1.00  0.00     0.189 C 
ATOM     17  C1  UNK     1      36.057  -1.645   8.354  1.00  0.00     0.183 C 
ATOM     18  C2  UNK     1      36.634  -0.241   8.172  1.00  0.00     0.205 C 
BRANCH  15  19
ATOM     19  C6  UNK     1      38.960  -3.315   6.496  1.00  0.00     0.172 C 
ATOM     20  O7  UNK     1      38.444  -4.212   5.845  1.00  0.00    -0.648 OA
BRANCH  19  21
ATOM     21  O6  UNK     1      40.244  -2.907   6.348  1.00  0.00    -0.774 OA
ATOM     22  H10 UNK     1      40.424  -2.584   5.439  1.00  0.00     0.167 HD
ENDBRANCH  19  21
ENDBRANCH  15  19
BRANCH  16  23
ATOM     23  O5  UNK     1      36.387  -3.976   7.850  1.00  0.00    -0.390 OA
ATOM     24  H8  UNK     1      37.197  -4.458   8.091  1.00  0.00     0.210 HD
ENDBRANCH  16  23
BRANCH  17  25
ATOM     25  O3  UNK     1      34.669  -1.638   8.016  1.00  0.00    -0.390 OA
ATOM     26  H6  UNK     1      34.481  -0.803   7.556  1.00  0.00     0.210 HD
ENDBRANCH  17  25
BRANCH  18  27
ATOM     27  O4  UNK     1      36.151   0.608   9.213  1.00  0.00    -0.388 OA
ATOM     28  H7  UNK     1      36.021   0.059  10.004  1.00  0.00     0.210 HD
ENDBRANCH  18  27
ENDBRANCH  12  13
ENDBRANCH   3  12
BRANCH   5  29
ATOM     29  O9  UNK     1      38.139   2.261  10.371  1.00  0.00    -0.356 OA
ATOM     30  H12 UNK     1      38.119   2.009  11.311  1.00  0.00     0.218 HD
ENDBRANCH   5  29
BRANCH   8  31
ATOM     31  O10 UNK     1      40.206   3.205  11.883  1.00  0.00    -0.357 OA
ATOM     32  H13 UNK     1      39.303   3.557  11.892  1.00  0.00     0.217 HD
ENDBRANCH   8  31
BRANCH  10  33
ATOM     33  C16 UNK     1      45.683   1.962   8.557  1.00  0.00    -0.002 A 
ATOM     34  C17 UNK     1      46.633   1.142   9.171  1.00  0.00     0.014 A 
ATOM     35  C19 UNK     1      47.870   0.928   8.563  1.00  0.00     0.001 A 
ATOM     36  C21 UNK     1      48.161   1.532   7.340  1.00  0.00     0.000 A 
ATOM     37  C20 UNK     1      47.215   2.351   6.725  1.00  0.00     0.001 A 
ATOM     38  C18 UNK     1      45.978   2.566   7.333  1.00  0.00     0.014 A 
ENDBRANCH  10  33
TORSDOF 10
ENDMDL
MODEL 12
REMARK VINA RESULT:      -6.7      2.066      3.168
REMARK  10 active torsions:
REMARK  status: ('A' for Active; 'I' for Inactive)
REMARK    1  A    between atoms: O2_2  and  C4_15 
REMARK    2  A    between atoms: O2_2  and  C7_18 
REMARK    3  A    between atoms: O3_3  and  C1_12 
REMARK    4  A    between atoms: O4_4  and  C2_13 
REMARK    5  A    between atoms: O5_5  and  C3_14 
REMARK    6  A    between atoms: O6_6  and  C6_17 
REMARK    7  A    between atoms: O9_9  and  C9_20 
REMARK    8  A    between atoms: O10_10  and  C12_23 
REMARK    9  A    between atoms: C5_16  and  C6_17 
REMARK   10  A    between atoms: C14_25  and  C16_27 
ROOT
ATOM      1  O8  UNK     1      45.397   2.251   9.181  1.00  0.00    -0.309 OA
ATOM      2  O11 UNK     1      44.284   5.181  11.784  1.00  0.00    -0.287 OA
ATOM      3  C7  UNK     1      42.432   0.662  10.582  1.00  0.00     0.110 A 
ATOM      4  C8  UNK     1      43.575   0.890   9.815  1.00  0.00     0.078 A 
ATOM      5  C9  UNK     1      41.995   1.627  11.491  1.00  0.00     0.134 A 
ATOM      6  C10 UNK     1      44.281   2.085   9.960  1.00  0.00     0.096 A 
ATOM      7  C11 UNK     1      43.844   3.045  10.870  1.00  0.00     0.084 A 
ATOM      8  C12 UNK     1      42.699   2.822  11.639  1.00  0.00     0.118 A 
ATOM      9  C13 UNK     1      44.608   4.295  11.005  1.00  0.00     0.190 A 
ATOM     10  C14 UNK     1      46.115   3.431   9.299  1.00  0.00     0.090 A 
ATOM     11  C15 UNK     1      45.799   4.428  10.141  1.00  0.00     0.094 A 
ENDROOT
BRANCH   3  12
ATOM     12  O2  UNK     1      41.748  -0.508  10.431  1.00  0.00    -0.315 OA
BRANCH  12  13
ATOM     13  C4  UNK     1      41.238  -0.788   9.127  1.00  0.00     0.299 C 
ATOM     14  O1  UNK     1      40.241   0.171   8.784  1.00  0.00    -0.340 OA
ATOM     15  C5  UNK     1      39.709  -0.043   7.482  1.00  0.00     0.253 C 
ATOM     16  C3  UNK     1      39.009  -1.394   7.392  1.00  0.00     0.189 C 
ATOM     17  C1  UNK     1      39.948  -2.520   7.822  1.00  0.00     0.183 C 
ATOM     18  C2  UNK     1      40.639  -2.195   9.147  1.00  0.00     0.205 C 
BRANCH  15  19
ATOM     19  C6  UNK     1      38.733   1.077   7.321  1.00  0.00     0.172 C 
ATOM     20  O7  UNK     1      38.184   1.667   8.240  1.00  0.00    -0.648 OA
BRANCH  19  21
ATOM     21  O6  UNK     1      38.532   1.352   6.009  1.00  0.00    -0.774 OA
ATOM     22  H10 UNK     1      38.624   2.310   5.817  1.00  0.00     0.167 HD
ENDBRANCH  19  21
ENDBRANCH  15  19
BRANCH  16  23
ATOM     23  O5  UNK     1      38.609  -1.612   6.040  1.00  0.00    -0.390 OA
ATOM     24  H8  UNK     1      37.637  -1.605   6.008  1.00  0.00     0.210 HD
ENDBRANCH  16  23
BRANCH  17  25
ATOM     25  O3  UNK     1      39.173  -3.711   7.970  1.00  0.00    -0.390 OA
ATOM     26  H6  UNK     1      38.251  -3.446   8.125  1.00  0.00     0.210 HD
ENDBRANCH  17  25
BRANCH  18  27
ATOM     27  O4  UNK     1      41.696  -3.128   9.372  1.00  0.00    -0.388 OA
ATOM     28  H7  UNK     1      42.478  -2.625   9.654  1.00  0.00     0.210 HD
ENDBRANCH  18  27
ENDBRANCH  12  13
ENDBRANCH   3  12
BRANCH   5  29
ATOM     29  O9  UNK     1      40.876   1.396  12.238  1.00  0.00    -0.356 OA
ATOM     30  H12 UNK     1      40.653   0.451  12.175  1.00  0.00     0.218 HD
ENDBRANCH   5  29
BRANCH   8  31
ATOM     31  O10 UNK     1      42.242   3.739  12.538  1.00  0.00    -0.357 OA
ATOM     32  H13 UNK     1      41.429   3.427  12.964  1.00  0.00     0.217 HD
ENDBRANCH   8  31
BRANCH  10  33
ATOM     33  C16 UNK     1      47.299   3.504   8.418  1.00  0.00    -0.002 A 
ATOM     34  C17 UNK     1      47.312   2.817   7.202  1.00  0.00     0.014 A 
ATOM     35  C19 UNK     1      48.429   2.887   6.370  1.00  0.00     0.001 A 
ATOM     36  C21 UNK     1      49.537   3.644   6.750  1.00  0.00     0.000 A 
ATOM     37  C20 UNK     1      49.528   4.331   7.964  1.00  0.00     0.001 A 
ATOM     38  C18 UNK     1      48.410   4.261   8.796  1.00  0.00     0.014 A 
ENDBRANCH  10  33
TORSDOF 10
ENDMDL
MODEL 13
REMARK VINA RESULT:      -6.7      5.998     10.098
REMARK  10 active torsions:
REMARK  status: ('A' for Active; 'I' for Inactive)
REMARK    1  A    between atoms: O2_2  and  C4_15 
REMARK    2  A    between atoms: O2_2  and  C7_18 
REMARK    3  A    between atoms: O3_3  and  C1_12 
REMARK    4  A    between atoms: O4_4  and  C2_13 
REMARK    5  A    between atoms: O5_5  and  C3_14 
REMARK    6  A    between atoms: O6_6  and  C6_17 
REMARK    7  A    between atoms: O9_9  and  C9_20 
REMARK    8  A    between atoms: O10_10  and  C12_23 
REMARK    9  A    between atoms: C5_16  and  C6_17 
REMARK   10  A    between atoms: C14_25  and  C16_27 
ROOT
ATOM      1  O8  UNK     1      37.034  -5.538   5.281  1.00  0.00    -0.309 OA
ATOM      2  O11 UNK     1      33.062  -6.061   6.024  1.00  0.00    -0.287 OA
ATOM      3  C7  UNK     1      36.400  -2.469   7.140  1.00  0.00     0.110 A 
ATOM      4  C8  UNK     1      37.052  -3.469   6.419  1.00  0.00     0.078 A 
ATOM      5  C9  UNK     1      35.040  -2.588   7.430  1.00  0.00     0.134 A 
ATOM      6  C10 UNK     1      36.340  -4.589   5.987  1.00  0.00     0.096 A 
ATOM      7  C11 UNK     1      34.982  -4.705   6.277  1.00  0.00     0.084 A 
ATOM      8  C12 UNK     1      34.326  -3.706   7.000  1.00  0.00     0.118 A 
ATOM      9  C13 UNK     1      34.256  -5.895   5.808  1.00  0.00     0.190 A 
ATOM     10  C14 UNK     1      36.354  -6.666   4.845  1.00  0.00     0.090 A 
ATOM     11  C15 UNK     1      35.048  -6.889   5.056  1.00  0.00     0.094 A 
ENDROOT
BRANCH   3  12
ATOM     12  O2  UNK     1      37.105  -1.379   7.558  1.00  0.00    -0.315 OA
BRANCH  12  13
ATOM     13  C4  UNK     1      38.521  -1.534   7.664  1.00  0.00     0.299 C 
ATOM     14  O1  UNK     1      38.841  -2.216   8.874  1.00  0.00    -0.340 OA
ATOM     15  C5  UNK     1      40.241  -2.422   9.025  1.00  0.00     0.253 C 
ATOM     16  C3  UNK     1      40.983  -1.093   9.108  1.00  0.00     0.189 C 
ATOM     17  C1  UNK     1      40.658  -0.214   7.901  1.00  0.00     0.183 C 
ATOM     18  C2  UNK     1      39.150  -0.141   7.655  1.00  0.00     0.205 C 
BRANCH  15  19
ATOM     19  C6  UNK     1      40.341  -3.172  10.313  1.00  0.00     0.172 C 
ATOM     20  O7  UNK     1      39.425  -3.328  11.107  1.00  0.00    -0.648 OA
BRANCH  19  21
ATOM     21  O6  UNK     1      41.594  -3.658  10.488  1.00  0.00    -0.774 OA
ATOM     22  H10 UNK     1      41.602  -4.455  11.060  1.00  0.00     0.167 HD
ENDBRANCH  19  21
ENDBRANCH  15  19
BRANCH  16  23
ATOM     23  O5  UNK     1      42.386  -1.354   9.129  1.00  0.00    -0.390 OA
ATOM     24  H8  UNK     1      42.843  -0.527   9.361  1.00  0.00     0.210 HD
ENDBRANCH  16  23
BRANCH  17  25
ATOM     25  O3  UNK     1      41.162   1.097   8.160  1.00  0.00    -0.390 OA
ATOM     26  H6  UNK     1      40.885   1.671   7.426  1.00  0.00     0.210 HD
ENDBRANCH  17  25
BRANCH  18  27
ATOM     27  O4  UNK     1      38.907   0.452   6.379  1.00  0.00    -0.388 OA
ATOM     28  H7  UNK     1      38.917   1.416   6.496  1.00  0.00     0.210 HD
ENDBRANCH  18  27
ENDBRANCH  12  13
ENDBRANCH   3  12
BRANCH   5  29
ATOM     29  O9  UNK     1      34.410  -1.605   8.137  1.00  0.00    -0.356 OA
ATOM     30  H12 UNK     1      33.495  -1.531   7.814  1.00  0.00     0.218 HD
ENDBRANCH   5  29
BRANCH   8  31
ATOM     31  O10 UNK     1      32.999  -3.786   7.302  1.00  0.00    -0.357 OA
ATOM     32  H13 UNK     1      32.511  -3.049   6.904  1.00  0.00     0.217 HD
ENDBRANCH   8  31
BRANCH  10  33
ATOM     33  C16 UNK     1      37.195  -7.620   4.093  1.00  0.00    -0.002 A 
ATOM     34  C17 UNK     1      38.544  -7.777   4.421  1.00  0.00     0.014 A 
ATOM     35  C19 UNK     1      39.336  -8.679   3.711  1.00  0.00     0.001 A 
ATOM     36  C21 UNK     1      38.784  -9.426   2.671  1.00  0.00     0.000 A 
ATOM     37  C20 UNK     1      37.437  -9.271   2.340  1.00  0.00     0.001 A 
ATOM     38  C18 UNK     1      36.645  -8.369   3.050  1.00  0.00     0.014 A 
ENDBRANCH  10  33
TORSDOF 10
ENDMDL
MODEL 14
REMARK VINA RESULT:      -6.6      1.996      3.178
REMARK  10 active torsions:
REMARK  status: ('A' for Active; 'I' for Inactive)
REMARK    1  A    between atoms: O2_2  and  C4_15 
REMARK    2  A    between atoms: O2_2  and  C7_18 
REMARK    3  A    between atoms: O3_3  and  C1_12 
REMARK    4  A    between atoms: O4_4  and  C2_13 
REMARK    5  A    between atoms: O5_5  and  C3_14 
REMARK    6  A    between atoms: O6_6  and  C6_17 
REMARK    7  A    between atoms: O9_9  and  C9_20 
REMARK    8  A    between atoms: O10_10  and  C12_23 
REMARK    9  A    between atoms: C5_16  and  C6_17 
REMARK   10  A    between atoms: C14_25  and  C16_27 
ROOT
ATOM      1  O8  UNK     1      43.735   1.336   9.239  1.00  0.00    -0.309 OA
ATOM      2  O11 UNK     1      43.393   5.343   9.897  1.00  0.00    -0.287 OA
ATOM      3  C7  UNK     1      40.107   1.557   9.502  1.00  0.00     0.110 A 
ATOM      4  C8  UNK     1      41.394   1.044   9.340  1.00  0.00     0.078 A 
ATOM      5  C9  UNK     1      39.920   2.921   9.729  1.00  0.00     0.134 A 
ATOM      6  C10 UNK     1      42.495   1.899   9.405  1.00  0.00     0.096 A 
ATOM      7  C11 UNK     1      42.306   3.261   9.632  1.00  0.00     0.084 A 
ATOM      8  C12 UNK     1      41.019   3.778   9.795  1.00  0.00     0.118 A 
ATOM      9  C13 UNK     1      43.484   4.139   9.698  1.00  0.00     0.190 A 
ATOM     10  C14 UNK     1      44.847   2.163   9.292  1.00  0.00     0.090 A 
ATOM     11  C15 UNK     1      44.796   3.486   9.509  1.00  0.00     0.094 A 
ENDROOT
BRANCH   3  12
ATOM     12  O2  UNK     1      39.037   0.713   9.436  1.00  0.00    -0.315 OA
BRANCH  12  13
ATOM     13  C4  UNK     1      39.323  -0.686   9.477  1.00  0.00     0.299 C 
ATOM     14  O1  UNK     1      38.915  -1.296   8.254  1.00  0.00    -0.340 OA
ATOM     15  C5  UNK     1      39.195  -2.691   8.226  1.00  0.00     0.253 C 
ATOM     16  C3  UNK     1      38.424  -3.426   9.315  1.00  0.00     0.189 C 
ATOM     17  C1  UNK     1      38.702  -2.811  10.687  1.00  0.00     0.183 C 
ATOM     18  C2  UNK     1      38.557  -1.289  10.655  1.00  0.00     0.205 C 
BRANCH  15  19
ATOM     19  C6  UNK     1      38.732  -3.107   6.868  1.00  0.00     0.172 C 
ATOM     20  O7  UNK     1      38.414  -4.244   6.553  1.00  0.00    -0.648 OA
BRANCH  19  21
ATOM     21  O6  UNK     1      38.712  -2.047   6.024  1.00  0.00    -0.774 OA
ATOM     22  H10 UNK     1      39.535  -1.986   5.493  1.00  0.00     0.167 HD
ENDBRANCH  19  21
ENDBRANCH  15  19
BRANCH  16  23
ATOM     23  O5  UNK     1      38.837  -4.792   9.325  1.00  0.00    -0.390 OA
ATOM     24  H8  UNK     1      38.086  -5.337   9.032  1.00  0.00     0.210 HD
ENDBRANCH  16  23
BRANCH  17  25
ATOM     25  O3  UNK     1      37.765  -3.359  11.616  1.00  0.00    -0.390 OA
ATOM     26  H6  UNK     1      37.478  -4.221  11.272  1.00  0.00     0.210 HD
ENDBRANCH  17  25
BRANCH  18  27
ATOM     27  O4  UNK     1      39.085  -0.738  11.861  1.00  0.00    -0.388 OA
ATOM     28  H7  UNK     1      39.525   0.099  11.635  1.00  0.00     0.210 HD
ENDBRANCH  18  27
ENDBRANCH  12  13
ENDBRANCH   3  12
BRANCH   5  29
ATOM     29  O9  UNK     1      38.657   3.415   9.887  1.00  0.00    -0.356 OA
ATOM     30  H12 UNK     1      38.690   4.382   9.780  1.00  0.00     0.218 HD
ENDBRANCH   5  29
BRANCH   8  31
ATOM     31  O10 UNK     1      40.796   5.104  10.018  1.00  0.00    -0.357 OA
ATOM     32  H13 UNK     1      40.950   5.620   9.212  1.00  0.00     0.217 HD
ENDBRANCH   8  31
BRANCH  10  33
ATOM     33  C16 UNK     1      46.130   1.455   9.105  1.00  0.00    -0.002 A 
ATOM     34  C17 UNK     1      47.032   1.884   8.128  1.00  0.00     0.014 A 
ATOM     35  C19 UNK     1      48.244   1.215   7.953  1.00  0.00     0.001 A 
ATOM     36  C21 UNK     1      48.558   0.118   8.754  1.00  0.00     0.000 A 
ATOM     37  C20 UNK     1      47.660  -0.313   9.730  1.00  0.00     0.001 A 
ATOM     38  C18 UNK     1      46.448   0.355   9.905  1.00  0.00     0.014 A 
ENDBRANCH  10  33
TORSDOF 10
ENDMDL
MODEL 15
REMARK VINA RESULT:      -6.6      2.807      3.816
REMARK  10 active torsions:
REMARK  status: ('A' for Active; 'I' for Inactive)
REMARK    1  A    between atoms: O2_2  and  C4_15 
REMARK    2  A    between atoms: O2_2  and  C7_18 
REMARK    3  A    between atoms: O3_3  and  C1_12 
REMARK    4  A    between atoms: O4_4  and  C2_13 
REMARK    5  A    between atoms: O5_5  and  C3_14 
REMARK    6  A    between atoms: O6_6  and  C6_17 
REMARK    7  A    between atoms: O9_9  and  C9_20 
REMARK    8  A    between atoms: O10_10  and  C12_23 
REMARK    9  A    between atoms: C5_16  and  C6_17 
REMARK   10  A    between atoms: C14_25  and  C16_27 
ROOT
ATOM      1  O8  UNK     1      44.292   0.253   9.175  1.00  0.00    -0.309 OA
ATOM      2  O11 UNK     1      43.760   1.780  12.915  1.00  0.00    -0.287 OA
ATOM      3  C7  UNK     1      41.322  -1.629  10.135  1.00  0.00     0.110 A 
ATOM      4  C8  UNK     1      42.403  -1.148   9.397  1.00  0.00     0.078 A 
ATOM      5  C9  UNK     1      41.083  -1.146  11.423  1.00  0.00     0.134 A 
ATOM      6  C10 UNK     1      43.246  -0.181   9.949  1.00  0.00     0.096 A 
ATOM      7  C11 UNK     1      43.005   0.299  11.235  1.00  0.00     0.084 A 
ATOM      8  C12 UNK     1      41.924  -0.181  11.978  1.00  0.00     0.118 A 
ATOM      9  C13 UNK     1      43.910   1.316  11.793  1.00  0.00     0.190 A 
ATOM     10  C14 UNK     1      45.141   1.218   9.695  1.00  0.00     0.090 A 
ATOM     11  C15 UNK     1      45.018   1.753  10.920  1.00  0.00     0.094 A 
ENDROOT
BRANCH   3  12
ATOM     12  O2  UNK     1      40.505  -2.573   9.587  1.00  0.00    -0.315 OA
BRANCH  12  13
ATOM     13  C4  UNK     1      39.408  -2.094   8.807  1.00  0.00     0.299 C 
ATOM     14  O1  UNK     1      38.197  -2.228   9.548  1.00  0.00    -0.340 OA
ATOM     15  C5  UNK     1      37.067  -1.745   8.830  1.00  0.00     0.253 C 
ATOM     16  C3  UNK     1      36.845  -2.549   7.554  1.00  0.00     0.189 C 
ATOM     17  C1  UNK     1      38.110  -2.563   6.695  1.00  0.00     0.183 C 
ATOM     18  C2  UNK     1      39.343  -2.924   7.525  1.00  0.00     0.205 C 
BRANCH  15  19
ATOM     19  C6  UNK     1      35.940  -1.943   9.790  1.00  0.00     0.172 C 
ATOM     20  O7  UNK     1      35.663  -1.190  10.712  1.00  0.00    -0.648 OA
BRANCH  19  21
ATOM     21  O6  UNK     1      35.261  -3.080   9.503  1.00  0.00    -0.774 OA
ATOM     22  H10 UNK     1      34.554  -3.260  10.159  1.00  0.00     0.167 HD
ENDBRANCH  19  21
ENDBRANCH  15  19
BRANCH  16  23
ATOM     23  O5  UNK     1      35.786  -1.945   6.813  1.00  0.00    -0.390 OA
ATOM     24  H8  UNK     1      36.008  -2.003   5.868  1.00  0.00     0.210 HD
ENDBRANCH  16  23
BRANCH  17  25
ATOM     25  O3  UNK     1      37.931  -3.533   5.662  1.00  0.00    -0.390 OA
ATOM     26  H6  UNK     1      37.047  -3.401   5.282  1.00  0.00     0.210 HD
ENDBRANCH  17  25
BRANCH  18  27
ATOM     27  O4  UNK     1      40.521  -2.661   6.762  1.00  0.00    -0.388 OA
ATOM     28  H7  UNK     1      40.245  -2.484   5.847  1.00  0.00     0.210 HD
ENDBRANCH  18  27
ENDBRANCH  12  13
ENDBRANCH   3  12
BRANCH   5  29
ATOM     29  O9  UNK     1      40.024  -1.623  12.139  1.00  0.00    -0.356 OA
ATOM     30  H12 UNK     1      39.262  -1.711  11.540  1.00  0.00     0.218 HD
ENDBRANCH   5  29
BRANCH   8  31
ATOM     31  O10 UNK     1      41.658   0.266  13.238  1.00  0.00    -0.357 OA
ATOM     32  H13 UNK     1      40.703   0.353  13.377  1.00  0.00     0.217 HD
ENDBRANCH   8  31
BRANCH  10  33
ATOM     33  C16 UNK     1      46.234   1.610   8.782  1.00  0.00    -0.002 A 
ATOM     34  C17 UNK     1      45.942   2.227   7.563  1.00  0.00     0.014 A 
ATOM     35  C19 UNK     1      46.975   2.598   6.701  1.00  0.00     0.001 A 
ATOM     36  C21 UNK     1      48.302   2.354   7.056  1.00  0.00     0.000 A 
ATOM     37  C20 UNK     1      48.596   1.738   8.272  1.00  0.00     0.001 A 
ATOM     38  C18 UNK     1      47.564   1.367   9.134  1.00  0.00     0.014 A 
ENDBRANCH  10  33
TORSDOF 10
ENDMDL
MODEL 16
REMARK VINA RESULT:      -6.6      2.612      3.861
REMARK  10 active torsions:
REMARK  status: ('A' for Active; 'I' for Inactive)
REMARK    1  A    between atoms: O2_2  and  C4_15 
REMARK    2  A    between atoms: O2_2  and  C7_18 
REMARK    3  A    between atoms: O3_3  and  C1_12 
REMARK    4  A    between atoms: O4_4  and  C2_13 
REMARK    5  A    between atoms: O5_5  and  C3_14 
REMARK    6  A    between atoms: O6_6  and  C6_17 
REMARK    7  A    between atoms: O9_9  and  C9_20 
REMARK    8  A    between atoms: O10_10  and  C12_23 
REMARK    9  A    between atoms: C5_16  and  C6_17 
REMARK   10  A    between atoms: C14_25  and  C16_27 
ROOT
ATOM      1  O8  UNK     1      44.144   0.463   9.315  1.00  0.00    -0.309 OA
ATOM      2  O11 UNK     1      42.864   3.006   6.400  1.00  0.00    -0.287 OA
ATOM      3  C7  UNK     1      40.580  -0.292   9.433  1.00  0.00     0.110 A 
ATOM      4  C8  UNK     1      41.947  -0.309   9.711  1.00  0.00     0.078 A 
ATOM      5  C9  UNK     1      40.077   0.556   8.445  1.00  0.00     0.134 A 
ATOM      6  C10 UNK     1      42.811   0.524   8.997  1.00  0.00     0.096 A 
ATOM      7  C11 UNK     1      42.306   1.369   8.011  1.00  0.00     0.084 A 
ATOM      8  C12 UNK     1      40.938   1.389   7.730  1.00  0.00     0.118 A 
ATOM      9  C13 UNK     1      43.238   2.237   7.276  1.00  0.00     0.190 A 
ATOM     10  C14 UNK     1      45.026   1.274   8.618  1.00  0.00     0.090 A 
ATOM     11  C15 UNK     1      44.662   2.132   7.653  1.00  0.00     0.094 A 
ENDROOT
BRANCH   3  12
ATOM     12  O2  UNK     1      39.745  -1.109  10.136  1.00  0.00    -0.315 OA
BRANCH  12  13
ATOM     13  C4  UNK     1      39.472  -2.389   9.563  1.00  0.00     0.299 C 
ATOM     14  O1  UNK     1      38.854  -2.225   8.290  1.00  0.00    -0.340 OA
ATOM     15  C5  UNK     1      38.577  -3.469   7.657  1.00  0.00     0.253 C 
ATOM     16  C3  UNK     1      37.590  -4.292   8.476  1.00  0.00     0.189 C 
ATOM     17  C1  UNK     1      38.091  -4.472   9.909  1.00  0.00     0.183 C 
ATOM     18  C2  UNK     1      38.541  -3.143  10.514  1.00  0.00     0.205 C 
BRANCH  15  19
ATOM     19  C6  UNK     1      37.981  -3.065   6.349  1.00  0.00     0.172 C 
ATOM     20  O7  UNK     1      37.158  -3.715   5.721  1.00  0.00    -0.648 OA
BRANCH  19  21
ATOM     21  O6  UNK     1      38.480  -1.872   5.944  1.00  0.00    -0.774 OA
ATOM     22  H10 UNK     1      38.670  -1.861   4.981  1.00  0.00     0.167 HD
ENDBRANCH  19  21
ENDBRANCH  15  19
BRANCH  16  23
ATOM     23  O5  UNK     1      37.447  -5.574   7.867  1.00  0.00    -0.390 OA
ATOM     24  H8  UNK     1      37.370  -5.445   6.906  1.00  0.00     0.210 HD
ENDBRANCH  16  23
BRANCH  17  25
ATOM     25  O3  UNK     1      37.022  -5.012  10.687  1.00  0.00    -0.390 OA
ATOM     26  H6  UNK     1      36.246  -4.442  10.560  1.00  0.00     0.210 HD
ENDBRANCH  17  25
BRANCH  18  27
ATOM     27  O4  UNK     1      39.248  -3.390  11.730  1.00  0.00    -0.388 OA
ATOM     28  H7  UNK     1      39.278  -2.556  12.228  1.00  0.00     0.210 HD
ENDBRANCH  18  27
ENDBRANCH  12  13
ENDBRANCH   3  12
BRANCH   5  29
ATOM     29  O9  UNK     1      38.738   0.566   8.179  1.00  0.00    -0.356 OA
ATOM     30  H12 UNK     1      38.455  -0.345   7.989  1.00  0.00     0.218 HD
ENDBRANCH   5  29
BRANCH   8  31
ATOM     31  O10 UNK     1      40.409   2.202   6.773  1.00  0.00    -0.357 OA
ATOM     32  H13 UNK     1      40.838   3.071   6.784  1.00  0.00     0.217 HD
ENDBRANCH   8  31
BRANCH  10  33
ATOM     33  C16 UNK     1      46.434   1.133   9.043  1.00  0.00    -0.002 A 
ATOM     34  C17 UNK     1      47.454   1.736   8.302  1.00  0.00     0.014 A 
ATOM     35  C19 UNK     1      48.783   1.604   8.704  1.00  0.00     0.001 A 
ATOM     36  C21 UNK     1      49.097   0.869   9.847  1.00  0.00     0.000 A 
ATOM     37  C20 UNK     1      48.081   0.266  10.589  1.00  0.00     0.001 A 
ATOM     38  C18 UNK     1      46.752   0.398  10.187  1.00  0.00     0.014 A 
ENDBRANCH  10  33
TORSDOF 10
ENDMDL
MODEL 17
REMARK VINA RESULT:      -6.6      3.819      5.785
REMARK  10 active torsions:
REMARK  status: ('A' for Active; 'I' for Inactive)
REMARK    1  A    between atoms: O2_2  and  C4_15 
REMARK    2  A    between atoms: O2_2  and  C7_18 
REMARK    3  A    between atoms: O3_3  and  C1_12 
REMARK    4  A    between atoms: O4_4  and  C2_13 
REMARK    5  A    between atoms: O5_5  and  C3_14 
REMARK    6  A    between atoms: O6_6  and  C6_17 
REMARK    7  A    between atoms: O9_9  and  C9_20 
REMARK    8  A    between atoms: O10_10  and  C12_23 
REMARK    9  A    between atoms: C5_16  and  C6_17 
REMARK   10  A    between atoms: C14_25  and  C16_27 
ROOT
ATOM      1  O8  UNK     1      41.292  -0.626   8.869  1.00  0.00    -0.309 OA
ATOM      2  O11 UNK     1      38.755   1.826   6.831  1.00  0.00    -0.287 OA
ATOM      3  C7  UNK     1      38.190  -2.464   9.394  1.00  0.00     0.110 A 
ATOM      4  C8  UNK     1      39.535  -2.099   9.436  1.00  0.00     0.078 A 
ATOM      5  C9  UNK     1      37.269  -1.669   8.711  1.00  0.00     0.134 A 
ATOM      6  C10 UNK     1      39.958  -0.934   8.792  1.00  0.00     0.096 A 
ATOM      7  C11 UNK     1      39.036  -0.141   8.112  1.00  0.00     0.084 A 
ATOM      8  C12 UNK     1      37.688  -0.504   8.067  1.00  0.00     0.118 A 
ATOM      9  C13 UNK     1      39.508   1.082   7.445  1.00  0.00     0.190 A 
ATOM     10  C14 UNK     1      41.742   0.522   8.233  1.00  0.00     0.090 A 
ATOM     11  C15 UNK     1      40.953   1.367   7.553  1.00  0.00     0.094 A 
ENDROOT
BRANCH   3  12
ATOM     12  O2  UNK     1      37.787  -3.604  10.025  1.00  0.00    -0.315 OA
BRANCH  12  13
ATOM     13  C4  UNK     1      37.693  -4.781   9.221  1.00  0.00     0.299 C 
ATOM     14  O1  UNK     1      37.760  -4.428   7.842  1.00  0.00    -0.340 OA
ATOM     15  C5  UNK     1      37.694  -5.566   6.989  1.00  0.00     0.253 C 
ATOM     16  C3  UNK     1      36.365  -6.295   7.150  1.00  0.00     0.189 C 
ATOM     17  C1  UNK     1      36.121  -6.659   8.614  1.00  0.00     0.183 C 
ATOM     18  C2  UNK     1      36.360  -5.461   9.534  1.00  0.00     0.205 C 
BRANCH  15  19
ATOM     19  C6  UNK     1      37.818  -4.977   5.621  1.00  0.00     0.172 C 
ATOM     20  O7  UNK     1      37.185  -5.339   4.641  1.00  0.00    -0.648 OA
BRANCH  19  21
ATOM     21  O6  UNK     1      38.737  -3.980   5.611  1.00  0.00    -0.774 OA
ATOM     22  H10 UNK     1      39.412  -4.097   6.313  1.00  0.00     0.167 HD
ENDBRANCH  19  21
ENDBRANCH  15  19
BRANCH  16  23
ATOM     23  O5  UNK     1      36.402  -7.490   6.373  1.00  0.00    -0.390 OA
ATOM     24  H8  UNK     1      35.556  -7.954   6.491  1.00  0.00     0.210 HD
ENDBRANCH  16  23
BRANCH  17  25
ATOM     25  O3  UNK     1      34.766  -7.094   8.742  1.00  0.00    -0.390 OA
ATOM     26  H6  UNK     1      34.254  -6.679   8.029  1.00  0.00     0.210 HD
ENDBRANCH  17  25
BRANCH  18  27
ATOM     27  O4  UNK     1      36.391  -5.904  10.891  1.00  0.00    -0.388 OA
ATOM     28  H7  UNK     1      37.307  -5.830  11.204  1.00  0.00     0.210 HD
ENDBRANCH  18  27
ENDBRANCH  12  13
ENDBRANCH   3  12
BRANCH   5  29
ATOM     29  O9  UNK     1      35.954  -2.034   8.675  1.00  0.00    -0.356 OA
ATOM     30  H12 UNK     1      35.507  -1.651   9.450  1.00  0.00     0.218 HD
ENDBRANCH   5  29
BRANCH   8  31
ATOM     31  O10 UNK     1      36.758   0.246   7.411  1.00  0.00    -0.357 OA
ATOM     32  H13 UNK     1      37.070   0.481   6.524  1.00  0.00     0.217 HD
ENDBRANCH   8  31
BRANCH  10  33
ATOM     33  C16 UNK     1      43.192   0.761   8.383  1.00  0.00    -0.002 A 
ATOM     34  C17 UNK     1      43.894   1.457   7.394  1.00  0.00     0.014 A 
ATOM     35  C19 UNK     1      45.263   1.683   7.536  1.00  0.00     0.001 A 
ATOM     36  C21 UNK     1      45.935   1.216   8.666  1.00  0.00     0.000 A 
ATOM     37  C20 UNK     1      45.237   0.521   9.654  1.00  0.00     0.001 A 
ATOM     38  C18 UNK     1      43.868   0.294   9.512  1.00  0.00     0.014 A 
ENDBRANCH  10  33
TORSDOF 10
ENDMDL
MODEL 18
REMARK VINA RESULT:      -6.6      2.497      3.357
REMARK  10 active torsions:
REMARK  status: ('A' for Active; 'I' for Inactive)
REMARK    1  A    between atoms: O2_2  and  C4_15 
REMARK    2  A    between atoms: O2_2  and  C7_18 
REMARK    3  A    between atoms: O3_3  and  C1_12 
REMARK    4  A    between atoms: O4_4  and  C2_13 
REMARK    5  A    between atoms: O5_5  and  C3_14 
REMARK    6  A    between atoms: O6_6  and  C6_17 
REMARK    7  A    between atoms: O9_9  and  C9_20 
REMARK    8  A    between atoms: O10_10  and  C12_23 
REMARK    9  A    between atoms: C5_16  and  C6_17 
REMARK   10  A    between atoms: C14_25  and  C16_27 
ROOT
ATOM      1  O8  UNK     1      45.242   1.113   8.941  1.00  0.00    -0.309 OA
ATOM      2  O11 UNK     1      44.964   2.321  12.822  1.00  0.00    -0.287 OA
ATOM      3  C7  UNK     1      42.247  -0.732   9.892  1.00  0.00     0.110 A 
ATOM      4  C8  UNK     1      43.309  -0.229   9.141  1.00  0.00     0.078 A 
ATOM      5  C9  UNK     1      42.094  -0.357  11.227  1.00  0.00     0.134 A 
ATOM      6  C10 UNK     1      44.219   0.653   9.728  1.00  0.00     0.096 A 
ATOM      7  C11 UNK     1      44.063   1.025  11.062  1.00  0.00     0.084 A 
ATOM      8  C12 UNK     1      43.001   0.523  11.818  1.00  0.00     0.118 A 
ATOM      9  C13 UNK     1      45.037   1.953  11.657  1.00  0.00     0.190 A 
ATOM     10  C14 UNK     1      46.157   1.995   9.496  1.00  0.00     0.090 A 
ATOM     11  C15 UNK     1      46.118   2.424  10.767  1.00  0.00     0.094 A 
ENDROOT
BRANCH   3  12
ATOM     12  O2  UNK     1      41.364  -1.592   9.308  1.00  0.00    -0.315 OA
BRANCH  12  13
ATOM     13  C4  UNK     1      40.259  -1.004   8.621  1.00  0.00     0.299 C 
ATOM     14  O1  UNK     1      39.336  -0.465   9.565  1.00  0.00    -0.340 OA
ATOM     15  C5  UNK     1      38.220   0.156   8.937  1.00  0.00     0.253 C 
ATOM     16  C3  UNK     1      37.417  -0.853   8.126  1.00  0.00     0.189 C 
ATOM     17  C1  UNK     1      38.312  -1.578   7.121  1.00  0.00     0.183 C 
ATOM     18  C2  UNK     1      39.589  -2.095   7.784  1.00  0.00     0.205 C 
BRANCH  15  19
ATOM     19  C6  UNK     1      37.422   0.674  10.089  1.00  0.00     0.172 C 
ATOM     20  O7  UNK     1      36.303   1.158  10.007  1.00  0.00    -0.648 OA
BRANCH  19  21
ATOM     21  O6  UNK     1      38.111   0.537  11.248  1.00  0.00    -0.774 OA
ATOM     22  H10 UNK     1      38.155  -0.399  11.541  1.00  0.00     0.167 HD
ENDBRANCH  19  21
ENDBRANCH  15  19
BRANCH  16  23
ATOM     23  O5  UNK     1      36.391  -0.158   7.418  1.00  0.00    -0.390 OA
ATOM     24  H8  UNK     1      36.553   0.797   7.512  1.00  0.00     0.210 HD
ENDBRANCH  16  23
BRANCH  17  25
ATOM     25  O3  UNK     1      37.575  -2.677   6.584  1.00  0.00    -0.390 OA
ATOM     26  H6  UNK     1      37.036  -2.342   5.850  1.00  0.00     0.210 HD
ENDBRANCH  17  25
BRANCH  18  27
ATOM     27  O4  UNK     1      40.510  -2.515   6.777  1.00  0.00    -0.388 OA
ATOM     28  H7  UNK     1      40.262  -3.415   6.509  1.00  0.00     0.210 HD
ENDBRANCH  18  27
ENDBRANCH  12  13
ENDBRANCH   3  12
BRANCH   5  29
ATOM     29  O9  UNK     1      41.052  -0.854  11.956  1.00  0.00    -0.356 OA
ATOM     30  H12 UNK     1      41.210  -0.656  12.895  1.00  0.00     0.218 HD
ENDBRANCH   5  29
BRANCH   8  31
ATOM     31  O10 UNK     1      42.818   0.866  13.124  1.00  0.00    -0.357 OA
ATOM     32  H13 UNK     1      43.575   0.588  13.662  1.00  0.00     0.217 HD
ENDBRANCH   8  31
BRANCH  10  33
ATOM     33  C16 UNK     1      47.219   2.425   8.563  1.00  0.00    -0.002 A 
ATOM     34  C17 UNK     1      46.974   2.453   7.187  1.00  0.00     0.014 A 
ATOM     35  C19 UNK     1      47.977   2.859   6.306  1.00  0.00     0.001 A 
ATOM     36  C21 UNK     1      49.226   3.239   6.797  1.00  0.00     0.000 A 
ATOM     37  C20 UNK     1      49.473   3.212   8.170  1.00  0.00     0.001 A 
ATOM     38  C18 UNK     1      48.470   2.806   9.051  1.00  0.00     0.014 A 
ENDBRANCH  10  33
TORSDOF 10
ENDMDL
MODEL 19
REMARK VINA RESULT:      -6.4      2.955      7.638
REMARK  10 active torsions:
REMARK  status: ('A' for Active; 'I' for Inactive)
REMARK    1  A    between atoms: O2_2  and  C4_15 
REMARK    2  A    between atoms: O2_2  and  C7_18 
REMARK    3  A    between atoms: O3_3  and  C1_12 
REMARK    4  A    between atoms: O4_4  and  C2_13 
REMARK    5  A    between atoms: O5_5  and  C3_14 
REMARK    6  A    between atoms: O6_6  and  C6_17 
REMARK    7  A    between atoms: O9_9  and  C9_20 
REMARK    8  A    between atoms: O10_10  and  C12_23 
REMARK    9  A    between atoms: C5_16  and  C6_17 
REMARK   10  A    between atoms: C14_25  and  C16_27 
ROOT
ATOM      1  O8  UNK     1      38.834  -0.636   7.613  1.00  0.00    -0.309 OA
ATOM      2  O11 UNK     1      36.261   0.947  10.346  1.00  0.00    -0.287 OA
ATOM      3  C7  UNK     1      40.790   2.273   8.609  1.00  0.00     0.110 A 
ATOM      4  C8  UNK     1      40.397   1.098   7.967  1.00  0.00     0.078 A 
ATOM      5  C9  UNK     1      39.956   2.866   9.557  1.00  0.00     0.134 A 
ATOM      6  C10 UNK     1      39.166   0.517   8.276  1.00  0.00     0.096 A 
ATOM      7  C11 UNK     1      38.335   1.112   9.223  1.00  0.00     0.084 A 
ATOM      8  C12 UNK     1      38.725   2.288   9.868  1.00  0.00     0.118 A 
ATOM      9  C13 UNK     1      37.042   0.479   9.528  1.00  0.00     0.190 A 
ATOM     10  C14 UNK     1      37.621  -1.240   7.905  1.00  0.00     0.090 A 
ATOM     11  C15 UNK     1      36.733  -0.762   8.791  1.00  0.00     0.094 A 
ENDROOT
BRANCH   3  12
ATOM     12  O2  UNK     1      41.995   2.832   8.300  1.00  0.00    -0.315 OA
BRANCH  12  13
ATOM     13  C4  UNK     1      43.138   1.979   8.389  1.00  0.00     0.299 C 
ATOM     14  O1  UNK     1      43.624   1.965   9.729  1.00  0.00    -0.340 OA
ATOM     15  C5  UNK     1      44.753   1.112   9.885  1.00  0.00     0.253 C 
ATOM     16  C3  UNK     1      45.926   1.595   9.041  1.00  0.00     0.189 C 
ATOM     17  C1  UNK     1      45.515   1.743   7.576  1.00  0.00     0.183 C 
ATOM     18  C2  UNK     1      44.206   2.522   7.440  1.00  0.00     0.205 C 
BRANCH  15  19
ATOM     19  C6  UNK     1      45.064   1.218  11.343  1.00  0.00     0.172 C 
ATOM     20  O7  UNK     1      46.176   1.097  11.834  1.00  0.00    -0.648 OA
BRANCH  19  21
ATOM     21  O6  UNK     1      43.938   1.465  12.056  1.00  0.00    -0.774 OA
ATOM     22  H10 UNK     1      43.701   0.714  12.640  1.00  0.00     0.167 HD
ENDBRANCH  19  21
ENDBRANCH  15  19
BRANCH  16  23
ATOM     23  O5  UNK     1      46.981   0.640   9.134  1.00  0.00    -0.390 OA
ATOM     24  H8  UNK     1      47.785   1.041   8.763  1.00  0.00     0.210 HD
ENDBRANCH  16  23
BRANCH  17  25
ATOM     25  O3  UNK     1      46.557   2.439   6.891  1.00  0.00    -0.390 OA
ATOM     26  H6  UNK     1      47.361   2.376   7.434  1.00  0.00     0.210 HD
ENDBRANCH  17  25
BRANCH  18  27
ATOM     27  O4  UNK     1      43.720   2.402   6.103  1.00  0.00    -0.388 OA
ATOM     28  H7  UNK     1      44.309   2.918   5.528  1.00  0.00     0.210 HD
ENDBRANCH  18  27
ENDBRANCH  12  13
ENDBRANCH   3  12
BRANCH   5  29
ATOM     29  O9  UNK     1      40.348   4.015  10.180  1.00  0.00    -0.356 OA
ATOM     30  H12 UNK     1      40.040   4.772   9.651  1.00  0.00     0.218 HD
ENDBRANCH   5  29
BRANCH   8  31
ATOM     31  O10 UNK     1      37.937   2.897  10.799  1.00  0.00    -0.357 OA
ATOM     32  H13 UNK     1      38.469   3.217  11.543  1.00  0.00     0.217 HD
ENDBRANCH   8  31
BRANCH  10  33
ATOM     33  C16 UNK     1      37.361  -2.472   7.131  1.00  0.00    -0.002 A 
ATOM     34  C17 UNK     1      36.054  -2.817   6.781  1.00  0.00     0.014 A 
ATOM     35  C19 UNK     1      35.810  -3.980   6.049  1.00  0.00     0.001 A 
ATOM     36  C21 UNK     1      36.871  -4.800   5.666  1.00  0.00     0.000 A 
ATOM     37  C20 UNK     1      38.178  -4.457   6.015  1.00  0.00     0.001 A 
ATOM     38  C18 UNK     1      38.422  -3.295   6.746  1.00  0.00     0.014 A 
ENDBRANCH  10  33
TORSDOF 10
ENDMDL
