MODEL 1
REMARK VINA RESULT:      -6.5      0.000      0.000
REMARK  10 active torsions:
REMARK  status: ('A' for Active; 'I' for Inactive)
REMARK    1  A    between atoms: O2_2  and  C4_15 
REMARK    2  A    between atoms: O2_2  and  C7_18 
REMARK    3  A    between atoms: O3_3  and  C1_12 
REMARK    4  A    between atoms: O4_4  and  C2_13 
REMARK    5  A    between atoms: O5_5  and  C3_14 
REMARK    6  A    between atoms: O6_6  and  C6_17 
REMARK    7  A    between atoms: O9_9  and  C9_20 
REMARK    8  A    between atoms: O10_10  and  C12_23 
REMARK    9  A    between atoms: C5_16  and  C6_17 
REMARK   10  A    between atoms: C14_25  and  C16_27 
ROOT
ATOM      1  O8  UNK     1      44.614   8.954  -9.456  1.00  0.00    -0.309 OA
ATOM      2  O11 UNK     1      46.237   5.810 -11.477  1.00  0.00    -0.287 OA
ATOM      3  C7  UNK     1      48.139   9.663  -8.863  1.00  0.00     0.110 A 
ATOM      4  C8  UNK     1      46.748   9.762  -8.847  1.00  0.00     0.078 A 
ATOM      5  C9  UNK     1      48.759   8.610  -9.539  1.00  0.00     0.134 A 
ATOM      6  C10 UNK     1      45.976   8.805  -9.508  1.00  0.00     0.096 A 
ATOM      7  C11 UNK     1      46.598   7.755 -10.182  1.00  0.00     0.084 A 
ATOM      8  C12 UNK     1      47.991   7.652 -10.201  1.00  0.00     0.118 A 
ATOM      9  C13 UNK     1      45.760   6.759 -10.869  1.00  0.00     0.190 A 
ATOM     10  C14 UNK     1      43.822   8.022 -10.110  1.00  0.00     0.090 A 
ATOM     11  C15 UNK     1      44.300   6.966 -10.787  1.00  0.00     0.094 A 
ENDROOT
BRANCH   3  12
ATOM     12  O2  UNK     1      48.884  10.603  -8.214  1.00  0.00    -0.315 OA
BRANCH  12  13
ATOM     13  C4  UNK     1      48.382  11.062  -6.959  1.00  0.00     0.299 C 
ATOM     14  O1  UNK     1      48.679  12.447  -6.799  1.00  0.00    -0.340 OA
ATOM     15  C5  UNK     1      48.181  12.969  -5.572  1.00  0.00     0.253 C 
ATOM     16  C3  UNK     1      48.835  12.281  -4.380  1.00  0.00     0.189 C 
ATOM     17  C1  UNK     1      48.668  10.765  -4.470  1.00  0.00     0.183 C 
ATOM     18  C2  UNK     1      49.051  10.243  -5.855  1.00  0.00     0.205 C 
BRANCH  15  19
ATOM     19  C6  UNK     1      48.564  14.412  -5.633  1.00  0.00     0.172 C 
ATOM     20  O7  UNK     1      47.952  15.324  -5.096  1.00  0.00    -0.648 OA
BRANCH  19  21
ATOM     21  O6  UNK     1      49.687  14.579  -6.373  1.00  0.00    -0.774 OA
ATOM     22  H10 UNK     1      49.518  14.452  -7.331  1.00  0.00     0.167 HD
ENDBRANCH  19  21
ENDBRANCH  15  19
BRANCH  16  23
ATOM     23  O5  UNK     1      48.212  12.749  -3.184  1.00  0.00    -0.390 OA
ATOM     24  H8  UNK     1      47.335  12.333  -3.119  1.00  0.00     0.210 HD
ENDBRANCH  16  23
BRANCH  17  25
ATOM     25  O3  UNK     1      49.513  10.167  -3.485  1.00  0.00    -0.390 OA
ATOM     26  H6  UNK     1      48.970   9.555  -2.962  1.00  0.00     0.210 HD
ENDBRANCH  17  25
BRANCH  18  27
ATOM     27  O4  UNK     1      48.626   8.886  -5.984  1.00  0.00    -0.388 OA
ATOM     28  H7  UNK     1      49.270   8.428  -6.548  1.00  0.00     0.210 HD
ENDBRANCH  18  27
ENDBRANCH  12  13
ENDBRANCH   3  12
BRANCH   5  29
ATOM     29  O9  UNK     1      50.121   8.521  -9.550  1.00  0.00    -0.356 OA
ATOM     30  H12 UNK     1      50.458   9.048 -10.296  1.00  0.00     0.218 HD
ENDBRANCH   5  29
BRANCH   8  31
ATOM     31  O10 UNK     1      48.632   6.639 -10.850  1.00  0.00    -0.357 OA
ATOM     32  H13 UNK     1      48.020   5.912 -11.041  1.00  0.00     0.217 HD
ENDBRANCH   8  31
BRANCH  10  33
ATOM     33  C16 UNK     1      42.372   8.275  -9.987  1.00  0.00    -0.002 A 
ATOM     34  C17 UNK     1      41.526   7.279  -9.492  1.00  0.00     0.014 A 
ATOM     35  C19 UNK     1      40.157   7.518  -9.375  1.00  0.00     0.001 A 
ATOM     36  C21 UNK     1      39.629   8.753  -9.750  1.00  0.00     0.000 A 
ATOM     37  C20 UNK     1      40.471   9.750 -10.244  1.00  0.00     0.001 A 
ATOM     38  C18 UNK     1      41.840   9.511 -10.362  1.00  0.00     0.014 A 
ENDBRANCH  10  33
TORSDOF 10
ENDMDL
MODEL 2
REMARK VINA RESULT:      -5.8      1.137      2.837
REMARK  10 active torsions:
REMARK  status: ('A' for Active; 'I' for Inactive)
REMARK    1  A    between atoms: O2_2  and  C4_15 
REMARK    2  A    between atoms: O2_2  and  C7_18 
REMARK    3  A    between atoms: O3_3  and  C1_12 
REMARK    4  A    between atoms: O4_4  and  C2_13 
REMARK    5  A    between atoms: O5_5  and  C3_14 
REMARK    6  A    between atoms: O6_6  and  C6_17 
REMARK    7  A    between atoms: O9_9  and  C9_20 
REMARK    8  A    between atoms: O10_10  and  C12_23 
REMARK    9  A    between atoms: C5_16  and  C6_17 
REMARK   10  A    between atoms: C14_25  and  C16_27 
ROOT
ATOM      1  O8  UNK     1      44.685   9.956  -9.212  1.00  0.00    -0.309 OA
ATOM      2  O11 UNK     1      47.185   7.055 -10.603  1.00  0.00    -0.287 OA
ATOM      3  C7  UNK     1      47.871  11.598  -8.558  1.00  0.00     0.110 A 
ATOM      4  C8  UNK     1      46.501  11.349  -8.631  1.00  0.00     0.078 A 
ATOM      5  C9  UNK     1      48.782  10.646  -9.019  1.00  0.00     0.134 A 
ATOM      6  C10 UNK     1      46.042  10.144  -9.167  1.00  0.00     0.096 A 
ATOM      7  C11 UNK     1      46.954   9.195  -9.626  1.00  0.00     0.084 A 
ATOM      8  C12 UNK     1      48.327   9.441  -9.555  1.00  0.00     0.118 A 
ATOM      9  C13 UNK     1      46.443   7.934 -10.184  1.00  0.00     0.190 A 
ATOM     10  C14 UNK     1      44.200   8.771  -9.746  1.00  0.00     0.090 A 
ATOM     11  C15 UNK     1      44.975   7.780 -10.214  1.00  0.00     0.094 A 
ENDROOT
BRANCH   3  12
ATOM     12  O2  UNK     1      48.309  12.778  -8.033  1.00  0.00    -0.315 OA
BRANCH  12  13
ATOM     13  C4  UNK     1      49.080  12.698  -6.833  1.00  0.00     0.299 C 
ATOM     14  O1  UNK     1      48.981  11.386  -6.285  1.00  0.00    -0.340 OA
ATOM     15  C5  UNK     1      49.749  11.237  -5.096  1.00  0.00     0.253 C 
ATOM     16  C3  UNK     1      49.244  12.167  -3.998  1.00  0.00     0.189 C 
ATOM     17  C1  UNK     1      49.214  13.615  -4.486  1.00  0.00     0.183 C 
ATOM     18  C2  UNK     1      48.529  13.730  -5.849  1.00  0.00     0.205 C 
BRANCH  15  19
ATOM     19  C6  UNK     1      49.533   9.806  -4.725  1.00  0.00     0.172 C 
ATOM     20  O7  UNK     1      50.099   9.225  -3.811  1.00  0.00    -0.648 OA
BRANCH  19  21
ATOM     21  O6  UNK     1      48.621   9.230  -5.546  1.00  0.00    -0.774 OA
ATOM     22  H10 UNK     1      48.120   8.518  -5.096  1.00  0.00     0.167 HD
ENDBRANCH  19  21
ENDBRANCH  15  19
BRANCH  16  23
ATOM     23  O5  UNK     1      50.123  12.071  -2.879  1.00  0.00    -0.390 OA
ATOM     24  H8  UNK     1      49.971  11.212  -2.448  1.00  0.00     0.210 HD
ENDBRANCH  16  23
BRANCH  17  25
ATOM     25  O3  UNK     1      48.496  14.391  -3.526  1.00  0.00    -0.390 OA
ATOM     26  H6  UNK     1      48.371  13.840  -2.735  1.00  0.00     0.210 HD
ENDBRANCH  17  25
BRANCH  18  27
ATOM     27  O4  UNK     1      48.762  15.031  -6.388  1.00  0.00    -0.388 OA
ATOM     28  H7  UNK     1      47.954  15.554  -6.255  1.00  0.00     0.210 HD
ENDBRANCH  18  27
ENDBRANCH  12  13
ENDBRANCH   3  12
BRANCH   5  29
ATOM     29  O9  UNK     1      50.122  10.898  -8.943  1.00  0.00    -0.356 OA
ATOM     30  H12 UNK     1      50.573  10.082  -8.664  1.00  0.00     0.218 HD
ENDBRANCH   5  29
BRANCH   8  31
ATOM     31  O10 UNK     1      49.247   8.536  -9.994  1.00  0.00    -0.357 OA
ATOM     32  H13 UNK     1      49.737   8.885 -10.754  1.00  0.00     0.217 HD
ENDBRANCH   8  31
BRANCH  10  33
ATOM     33  C16 UNK     1      42.726   8.670  -9.742  1.00  0.00    -0.002 A 
ATOM     34  C17 UNK     1      41.947   9.765 -10.125  1.00  0.00     0.014 A 
ATOM     35  C19 UNK     1      40.555   9.669 -10.122  1.00  0.00     0.001 A 
ATOM     36  C21 UNK     1      39.938   8.479  -9.738  1.00  0.00     0.000 A 
ATOM     37  C20 UNK     1      40.713   7.383  -9.356  1.00  0.00     0.001 A 
ATOM     38  C18 UNK     1      42.105   7.480  -9.358  1.00  0.00     0.014 A 
ENDBRANCH  10  33
TORSDOF 10
ENDMDL
MODEL 3
REMARK VINA RESULT:      -5.6      2.092      8.378
REMARK  10 active torsions:
REMARK  status: ('A' for Active; 'I' for Inactive)
REMARK    1  A    between atoms: O2_2  and  C4_15 
REMARK    2  A    between atoms: O2_2  and  C7_18 
REMARK    3  A    between atoms: O3_3  and  C1_12 
REMARK    4  A    between atoms: O4_4  and  C2_13 
REMARK    5  A    between atoms: O5_5  and  C3_14 
REMARK    6  A    between atoms: O6_6  and  C6_17 
REMARK    7  A    between atoms: O9_9  and  C9_20 
REMARK    8  A    between atoms: O10_10  and  C12_23 
REMARK    9  A    between atoms: C5_16  and  C6_17 
REMARK   10  A    between atoms: C14_25  and  C16_27 
ROOT
ATOM      1  O8  UNK     1      47.621  11.513  -7.441  1.00  0.00    -0.309 OA
ATOM      2  O11 UNK     1      50.125   8.331  -6.984  1.00  0.00    -0.287 OA
ATOM      3  C7  UNK     1      46.068   9.228  -9.818  1.00  0.00     0.110 A 
ATOM      4  C8  UNK     1      46.330  10.362  -9.049  1.00  0.00     0.078 A 
ATOM      5  C9  UNK     1      46.887   8.103  -9.708  1.00  0.00     0.134 A 
ATOM      6  C10 UNK     1      47.413  10.370  -8.169  1.00  0.00     0.096 A 
ATOM      7  C11 UNK     1      48.230   9.245  -8.062  1.00  0.00     0.084 A 
ATOM      8  C12 UNK     1      47.971   8.107  -8.830  1.00  0.00     0.118 A 
ATOM      9  C13 UNK     1      49.366   9.281  -7.128  1.00  0.00     0.190 A 
ATOM     10  C14 UNK     1      48.686  11.546  -6.553  1.00  0.00     0.090 A 
ATOM     11  C15 UNK     1      49.544  10.532  -6.365  1.00  0.00     0.094 A 
ENDROOT
BRANCH   3  12
ATOM     12  O2  UNK     1      45.007   9.231 -10.674  1.00  0.00    -0.315 OA
BRANCH  12  13
ATOM     13  C4  UNK     1      43.730   8.925 -10.112  1.00  0.00     0.299 C 
ATOM     14  O1  UNK     1      43.496   7.521 -10.187  1.00  0.00    -0.340 OA
ATOM     15  C5  UNK     1      42.244   7.150  -9.619  1.00  0.00     0.253 C 
ATOM     16  C3  UNK     1      41.088   7.788 -10.380  1.00  0.00     0.189 C 
ATOM     17  C1  UNK     1      41.259   9.306 -10.454  1.00  0.00     0.183 C 
ATOM     18  C2  UNK     1      42.669   9.686 -10.908  1.00  0.00     0.205 C 
BRANCH  15  19
ATOM     19  C6  UNK     1      42.227   5.664  -9.768  1.00  0.00     0.172 C 
ATOM     20  O7  UNK     1      41.887   4.875  -8.898  1.00  0.00    -0.648 OA
BRANCH  19  21
ATOM     21  O6  UNK     1      42.644   5.302 -11.006  1.00  0.00    -0.774 OA
ATOM     22  H10 UNK     1      41.924   5.366 -11.669  1.00  0.00     0.167 HD
ENDBRANCH  19  21
ENDBRANCH  15  19
BRANCH  16  23
ATOM     23  O5  UNK     1      39.871   7.490  -9.696  1.00  0.00    -0.390 OA
ATOM     24  H8  UNK     1      39.344   8.306  -9.648  1.00  0.00     0.210 HD
ENDBRANCH  16  23
BRANCH  17  25
ATOM     25  O3  UNK     1      40.305   9.813 -11.388  1.00  0.00    -0.390 OA
ATOM     26  H6  UNK     1      39.419   9.613 -11.044  1.00  0.00     0.210 HD
ENDBRANCH  17  25
BRANCH  18  27
ATOM     27  O4  UNK     1      42.872  11.084 -10.702  1.00  0.00    -0.388 OA
ATOM     28  H7  UNK     1      42.603  11.543 -11.515  1.00  0.00     0.210 HD
ENDBRANCH  18  27
ENDBRANCH  12  13
ENDBRANCH   3  12
BRANCH   5  29
ATOM     29  O9  UNK     1      46.624   6.997 -10.464  1.00  0.00    -0.356 OA
ATOM     30  H12 UNK     1      45.806   6.587 -10.134  1.00  0.00     0.218 HD
ENDBRANCH   5  29
BRANCH   8  31
ATOM     31  O10 UNK     1      48.747   6.990  -8.750  1.00  0.00    -0.357 OA
ATOM     32  H13 UNK     1      49.468   7.116  -8.114  1.00  0.00     0.217 HD
ENDBRANCH   8  31
BRANCH  10  33
ATOM     33  C16 UNK     1      48.820  12.824  -5.825  1.00  0.00    -0.002 A 
ATOM     34  C17 UNK     1      47.781  13.279  -5.008  1.00  0.00     0.014 A 
ATOM     35  C19 UNK     1      47.909  14.486  -4.320  1.00  0.00     0.001 A 
ATOM     36  C21 UNK     1      49.075  15.241  -4.445  1.00  0.00     0.000 A 
ATOM     37  C20 UNK     1      50.114  14.790  -5.260  1.00  0.00     0.001 A 
ATOM     38  C18 UNK     1      49.986  13.583  -5.948  1.00  0.00     0.014 A 
ENDBRANCH  10  33
TORSDOF 10
ENDMDL
MODEL 4
REMARK VINA RESULT:      -5.4      2.256      7.531
REMARK  10 active torsions:
REMARK  status: ('A' for Active; 'I' for Inactive)
REMARK    1  A    between atoms: O2_2  and  C4_15 
REMARK    2  A    between atoms: O2_2  and  C7_18 
REMARK    3  A    between atoms: O3_3  and  C1_12 
REMARK    4  A    between atoms: O4_4  and  C2_13 
REMARK    5  A    between atoms: O5_5  and  C3_14 
REMARK    6  A    between atoms: O6_6  and  C6_17 
REMARK    7  A    between atoms: O9_9  and  C9_20 
REMARK    8  A    between atoms: O10_10  and  C12_23 
REMARK    9  A    between atoms: C5_16  and  C6_17 
REMARK   10  A    between atoms: C14_25  and  C16_27 
ROOT
ATOM      1  O8  UNK     1      46.918  10.582  -7.742  1.00  0.00    -0.309 OA
ATOM      2  O11 UNK     1      50.124   9.608 -10.060  1.00  0.00    -0.287 OA
ATOM      3  C7  UNK     1      45.346   8.054  -9.845  1.00  0.00     0.110 A 
ATOM      4  C8  UNK     1      45.537   9.031  -8.868  1.00  0.00     0.078 A 
ATOM      5  C9  UNK     1      46.404   7.673 -10.671  1.00  0.00     0.134 A 
ATOM      6  C10 UNK     1      46.791   9.627  -8.719  1.00  0.00     0.096 A 
ATOM      7  C11 UNK     1      47.846   9.245  -9.546  1.00  0.00     0.084 A 
ATOM      8  C12 UNK     1      47.658   8.267 -10.525  1.00  0.00     0.118 A 
ATOM      9  C13 UNK     1      49.155   9.891  -9.368  1.00  0.00     0.190 A 
ATOM     10  C14 UNK     1      48.153  11.186  -7.567  1.00  0.00     0.090 A 
ATOM     11  C15 UNK     1      49.242  10.909  -8.301  1.00  0.00     0.094 A 
ENDROOT
BRANCH   3  12
ATOM     12  O2  UNK     1      44.118   7.477  -9.982  1.00  0.00    -0.315 OA
BRANCH  12  13
ATOM     13  C4  UNK     1      43.124   8.244 -10.663  1.00  0.00     0.299 C 
ATOM     14  O1  UNK     1      43.572   9.589 -10.812  1.00  0.00    -0.340 OA
ATOM     15  C5  UNK     1      42.630  10.400 -11.505  1.00  0.00     0.253 C 
ATOM     16  C3  UNK     1      41.321  10.500 -10.732  1.00  0.00     0.189 C 
ATOM     17  C1  UNK     1      40.766   9.110 -10.423  1.00  0.00     0.183 C 
ATOM     18  C2  UNK     1      41.842   8.199  -9.830  1.00  0.00     0.205 C 
BRANCH  15  19
ATOM     19  C6  UNK     1      43.310  11.728 -11.580  1.00  0.00     0.172 C 
ATOM     20  O7  UNK     1      42.739  12.808 -11.622  1.00  0.00    -0.648 OA
BRANCH  19  21
ATOM     21  O6  UNK     1      44.657  11.576 -11.599  1.00  0.00    -0.774 OA
ATOM     22  H10 UNK     1      44.919  10.662 -11.839  1.00  0.00     0.167 HD
ENDBRANCH  19  21
ENDBRANCH  15  19
BRANCH  16  23
ATOM     23  O5  UNK     1      40.374  11.213 -11.527  1.00  0.00    -0.390 OA
ATOM     24  H8  UNK     1      40.848  11.609 -12.278  1.00  0.00     0.210 HD
ENDBRANCH  16  23
BRANCH  17  25
ATOM     25  O3  UNK     1      39.698   9.258  -9.485  1.00  0.00    -0.390 OA
ATOM     26  H6  UNK     1      40.006   9.848  -8.777  1.00  0.00     0.210 HD
ENDBRANCH  17  25
BRANCH  18  27
ATOM     27  O4  UNK     1      41.366   6.853  -9.813  1.00  0.00    -0.388 OA
ATOM     28  H7  UNK     1      41.127   6.614 -10.724  1.00  0.00     0.210 HD
ENDBRANCH  18  27
ENDBRANCH  12  13
ENDBRANCH   3  12
BRANCH   5  29
ATOM     29  O9  UNK     1      46.209   6.716 -11.625  1.00  0.00    -0.356 OA
ATOM     30  H12 UNK     1      45.257   6.667 -11.821  1.00  0.00     0.218 HD
ENDBRANCH   5  29
BRANCH   8  31
ATOM     31  O10 UNK     1      48.667   7.869 -11.351  1.00  0.00    -0.357 OA
ATOM     32  H13 UNK     1      48.605   8.316 -12.209  1.00  0.00     0.217 HD
ENDBRANCH   8  31
BRANCH  10  33
ATOM     33  C16 UNK     1      48.178  12.201  -6.493  1.00  0.00    -0.002 A 
ATOM     34  C17 UNK     1      48.551  13.516  -6.780  1.00  0.00     0.014 A 
ATOM     35  C19 UNK     1      48.573  14.474  -5.766  1.00  0.00     0.001 A 
ATOM     36  C21 UNK     1      48.222  14.121  -4.463  1.00  0.00     0.000 A 
ATOM     37  C20 UNK     1      47.849  12.808  -4.174  1.00  0.00     0.001 A 
ATOM     38  C18 UNK     1      47.827  11.850  -5.188  1.00  0.00     0.014 A 
ENDBRANCH  10  33
TORSDOF 10
ENDMDL
MODEL 5
REMARK VINA RESULT:      -5.4      2.038      2.788
REMARK  10 active torsions:
REMARK  status: ('A' for Active; 'I' for Inactive)
REMARK    1  A    between atoms: O2_2  and  C4_15 
REMARK    2  A    between atoms: O2_2  and  C7_18 
REMARK    3  A    between atoms: O3_3  and  C1_12 
REMARK    4  A    between atoms: O4_4  and  C2_13 
REMARK    5  A    between atoms: O5_5  and  C3_14 
REMARK    6  A    between atoms: O6_6  and  C6_17 
REMARK    7  A    between atoms: O9_9  and  C9_20 
REMARK    8  A    between atoms: O10_10  and  C12_23 
REMARK    9  A    between atoms: C5_16  and  C6_17 
REMARK   10  A    between atoms: C14_25  and  C16_27 
ROOT
ATOM      1  O8  UNK     1      44.245   9.205  -8.991  1.00  0.00    -0.309 OA
ATOM      2  O11 UNK     1      44.117  12.326 -11.606  1.00  0.00    -0.287 OA
ATOM      3  C7  UNK     1      47.471  10.717  -8.222  1.00  0.00     0.110 A 
ATOM      4  C8  UNK     1      46.374   9.855  -8.201  1.00  0.00     0.078 A 
ATOM      5  C9  UNK     1      47.489  11.807  -9.094  1.00  0.00     0.134 A 
ATOM      6  C10 UNK     1      45.294  10.086  -9.055  1.00  0.00     0.096 A 
ATOM      7  C11 UNK     1      45.315  11.175  -9.925  1.00  0.00     0.084 A 
ATOM      8  C12 UNK     1      46.412  12.040  -9.949  1.00  0.00     0.118 A 
ATOM      9  C13 UNK     1      44.165  11.393 -10.816  1.00  0.00     0.190 A 
ATOM     10  C14 UNK     1      43.155   9.413  -9.822  1.00  0.00     0.090 A 
ATOM     11  C15 UNK     1      43.060  10.420 -10.705  1.00  0.00     0.094 A 
ENDROOT
BRANCH   3  12
ATOM     12  O2  UNK     1      48.520  10.483  -7.383  1.00  0.00    -0.315 OA
BRANCH  12  13
ATOM     13  C4  UNK     1      48.359  10.897  -6.026  1.00  0.00     0.299 C 
ATOM     14  O1  UNK     1      48.834  12.233  -5.871  1.00  0.00    -0.340 OA
ATOM     15  C5  UNK     1      48.678  12.711  -4.540  1.00  0.00     0.253 C 
ATOM     16  C3  UNK     1      49.499  11.881  -3.560  1.00  0.00     0.189 C 
ATOM     17  C1  UNK     1      49.151  10.397  -3.683  1.00  0.00     0.183 C 
ATOM     18  C2  UNK     1      49.161   9.941  -5.143  1.00  0.00     0.205 C 
BRANCH  15  19
ATOM     19  C6  UNK     1      49.193  14.112  -4.616  1.00  0.00     0.172 C 
ATOM     20  O7  UNK     1      50.005  14.517  -5.434  1.00  0.00    -0.648 OA
BRANCH  19  21
ATOM     21  O6  UNK     1      48.638  14.879  -3.647  1.00  0.00    -0.774 OA
ATOM     22  H10 UNK     1      48.168  14.339  -2.975  1.00  0.00     0.167 HD
ENDBRANCH  19  21
ENDBRANCH  15  19
BRANCH  16  23
ATOM     23  O5  UNK     1      49.208  12.319  -2.234  1.00  0.00    -0.390 OA
ATOM     24  H8  UNK     1      49.983  12.802  -1.899  1.00  0.00     0.210 HD
ENDBRANCH  16  23
BRANCH  17  25
ATOM     25  O3  UNK     1      50.121   9.653  -2.945  1.00  0.00    -0.390 OA
ATOM     26  H6  UNK     1      50.754  10.285  -2.566  1.00  0.00     0.210 HD
ENDBRANCH  17  25
BRANCH  18  27
ATOM     27  O4  UNK     1      48.572   8.644  -5.238  1.00  0.00    -0.388 OA
ATOM     28  H7  UNK     1      48.443   8.447  -6.180  1.00  0.00     0.210 HD
ENDBRANCH  18  27
ENDBRANCH  12  13
ENDBRANCH   3  12
BRANCH   5  29
ATOM     29  O9  UNK     1      48.566  12.645  -9.108  1.00  0.00    -0.356 OA
ATOM     30  H12 UNK     1      49.223  12.292  -9.733  1.00  0.00     0.218 HD
ENDBRANCH   5  29
BRANCH   8  31
ATOM     31  O10 UNK     1      46.467  13.114 -10.786  1.00  0.00    -0.357 OA
ATOM     32  H13 UNK     1      47.376  13.274 -11.081  1.00  0.00     0.217 HD
ENDBRANCH   8  31
BRANCH  10  33
ATOM     33  C16 UNK     1      42.086   8.405  -9.674  1.00  0.00    -0.002 A 
ATOM     34  C17 UNK     1      42.395   7.043  -9.718  1.00  0.00     0.014 A 
ATOM     35  C19 UNK     1      41.385   6.091  -9.577  1.00  0.00     0.001 A 
ATOM     36  C21 UNK     1      40.064   6.497  -9.391  1.00  0.00     0.000 A 
ATOM     37  C20 UNK     1      39.752   7.856  -9.348  1.00  0.00     0.001 A 
ATOM     38  C18 UNK     1      40.762   8.808  -9.488  1.00  0.00     0.014 A 
ENDBRANCH  10  33
TORSDOF 10
ENDMDL
MODEL 6
REMARK VINA RESULT:      -5.1      2.368      7.046
REMARK  10 active torsions:
REMARK  status: ('A' for Active; 'I' for Inactive)
REMARK    1  A    between atoms: O2_2  and  C4_15 
REMARK    2  A    between atoms: O2_2  and  C7_18 
REMARK    3  A    between atoms: O3_3  and  C1_12 
REMARK    4  A    between atoms: O4_4  and  C2_13 
REMARK    5  A    between atoms: O5_5  and  C3_14 
REMARK    6  A    between atoms: O6_6  and  C6_17 
REMARK    7  A    between atoms: O9_9  and  C9_20 
REMARK    8  A    between atoms: O10_10  and  C12_23 
REMARK    9  A    between atoms: C5_16  and  C6_17 
REMARK   10  A    between atoms: C14_25  and  C16_27 
ROOT
ATOM      1  O8  UNK     1      47.693  10.249  -7.990  1.00  0.00    -0.309 OA
ATOM      2  O11 UNK     1      50.125   7.215  -6.771  1.00  0.00    -0.287 OA
ATOM      3  C7  UNK     1      46.845   7.787 -10.540  1.00  0.00     0.110 A 
ATOM      4  C8  UNK     1      46.872   8.966  -9.795  1.00  0.00     0.078 A 
ATOM      5  C9  UNK     1      47.653   6.709 -10.175  1.00  0.00     0.134 A 
ATOM      6  C10 UNK     1      47.709   9.065  -8.682  1.00  0.00     0.096 A 
ATOM      7  C11 UNK     1      48.515   7.987  -8.321  1.00  0.00     0.084 A 
ATOM      8  C12 UNK     1      48.491   6.805  -9.064  1.00  0.00     0.118 A 
ATOM      9  C13 UNK     1      49.389   8.119  -7.145  1.00  0.00     0.190 A 
ATOM     10  C14 UNK     1      48.509  10.373  -6.876  1.00  0.00     0.090 A 
ATOM     11  C15 UNK     1      49.333   9.411  -6.431  1.00  0.00     0.094 A 
ENDROOT
BRANCH   3  12
ATOM     12  O2  UNK     1      46.023   7.701 -11.625  1.00  0.00    -0.315 OA
BRANCH  12  13
ATOM     13  C4  UNK     1      44.703   8.222 -11.470  1.00  0.00     0.299 C 
ATOM     14  O1  UNK     1      44.756   9.472 -10.787  1.00  0.00    -0.340 OA
ATOM     15  C5  UNK     1      43.468  10.054 -10.622  1.00  0.00     0.253 C 
ATOM     16  C3  UNK     1      42.573   9.169  -9.763  1.00  0.00     0.189 C 
ATOM     17  C1  UNK     1      42.496   7.755 -10.338  1.00  0.00     0.183 C 
ATOM     18  C2  UNK     1      43.887   7.210 -10.665  1.00  0.00     0.205 C 
BRANCH  15  19
ATOM     19  C6  UNK     1      43.761  11.347  -9.932  1.00  0.00     0.172 C 
ATOM     20  O7  UNK     1      43.988  12.407 -10.496  1.00  0.00    -0.648 OA
BRANCH  19  21
ATOM     21  O6  UNK     1      43.745  11.187  -8.587  1.00  0.00    -0.774 OA
ATOM     22  H10 UNK     1      44.439  10.563  -8.283  1.00  0.00     0.167 HD
ENDBRANCH  19  21
ENDBRANCH  15  19
BRANCH  16  23
ATOM     23  O5  UNK     1      41.263   9.732  -9.735  1.00  0.00    -0.390 OA
ATOM     24  H8  UNK     1      41.003   9.847  -8.805  1.00  0.00     0.210 HD
ENDBRANCH  16  23
BRANCH  17  25
ATOM     25  O3  UNK     1      41.872   6.915  -9.366  1.00  0.00    -0.390 OA
ATOM     26  H6  UNK     1      42.501   6.787  -8.637  1.00  0.00     0.210 HD
ENDBRANCH  17  25
BRANCH  18  27
ATOM     27  O4  UNK     1      43.758   6.019 -11.443  1.00  0.00    -0.388 OA
ATOM     28  H7  UNK     1      42.836   5.961 -11.743  1.00  0.00     0.210 HD
ENDBRANCH  18  27
ENDBRANCH  12  13
ENDBRANCH   3  12
BRANCH   5  29
ATOM     29  O9  UNK     1      47.621   5.559 -10.910  1.00  0.00    -0.356 OA
ATOM     30  H12 UNK     1      46.691   5.309 -11.048  1.00  0.00     0.218 HD
ENDBRANCH   5  29
BRANCH   8  31
ATOM     31  O10 UNK     1      49.265   5.731  -8.739  1.00  0.00    -0.357 OA
ATOM     32  H13 UNK     1      49.946   5.581  -9.413  1.00  0.00     0.217 HD
ENDBRANCH   8  31
BRANCH  10  33
ATOM     33  C16 UNK     1      48.418  11.688  -6.209  1.00  0.00    -0.002 A 
ATOM     34  C17 UNK     1      47.961  11.775  -4.891  1.00  0.00     0.014 A 
ATOM     35  C19 UNK     1      47.875  13.017  -4.260  1.00  0.00     0.001 A 
ATOM     36  C21 UNK     1      48.246  14.174  -4.944  1.00  0.00     0.000 A 
ATOM     37  C20 UNK     1      48.702  14.090  -6.260  1.00  0.00     0.001 A 
ATOM     38  C18 UNK     1      48.788  12.849  -6.891  1.00  0.00     0.014 A 
ENDBRANCH  10  33
TORSDOF 10
ENDMDL
MODEL 7
REMARK VINA RESULT:      -5.0      2.301      8.376
REMARK  10 active torsions:
REMARK  status: ('A' for Active; 'I' for Inactive)
REMARK    1  A    between atoms: O2_2  and  C4_15 
REMARK    2  A    between atoms: O2_2  and  C7_18 
REMARK    3  A    between atoms: O3_3  and  C1_12 
REMARK    4  A    between atoms: O4_4  and  C2_13 
REMARK    5  A    between atoms: O5_5  and  C3_14 
REMARK    6  A    between atoms: O6_6  and  C6_17 
REMARK    7  A    between atoms: O9_9  and  C9_20 
REMARK    8  A    between atoms: O10_10  and  C12_23 
REMARK    9  A    between atoms: C5_16  and  C6_17 
REMARK   10  A    between atoms: C14_25  and  C16_27 
ROOT
ATOM      1  O8  UNK     1      47.605  11.115  -6.586  1.00  0.00    -0.309 OA
ATOM      2  O11 UNK     1      49.860  13.084  -9.350  1.00  0.00    -0.287 OA
ATOM      3  C7  UNK     1      45.284  10.999  -9.393  1.00  0.00     0.110 A 
ATOM      4  C8  UNK     1      45.837  10.824  -8.125  1.00  0.00     0.078 A 
ATOM      5  C9  UNK     1      46.005  11.664 -10.386  1.00  0.00     0.134 A 
ATOM      6  C10 UNK     1      47.114  11.316  -7.851  1.00  0.00     0.096 A 
ATOM      7  C11 UNK     1      47.832  11.980  -8.844  1.00  0.00     0.084 A 
ATOM      8  C12 UNK     1      47.281  12.157 -10.116  1.00  0.00     0.118 A 
ATOM      9  C13 UNK     1      49.175  12.490  -8.528  1.00  0.00     0.190 A 
ATOM     10  C14 UNK     1      48.874  11.586  -6.287  1.00  0.00     0.090 A 
ATOM     11  C15 UNK     1      49.659  12.244  -7.154  1.00  0.00     0.094 A 
ENDROOT
BRANCH   3  12
ATOM     12  O2  UNK     1      44.035  10.514  -9.651  1.00  0.00    -0.315 OA
BRANCH  12  13
ATOM     13  C4  UNK     1      43.844   9.110  -9.470  1.00  0.00     0.299 C 
ATOM     14  O1  UNK     1      44.791   8.391 -10.256  1.00  0.00    -0.340 OA
ATOM     15  C5  UNK     1      44.665   6.982 -10.100  1.00  0.00     0.253 C 
ATOM     16  C3  UNK     1      43.302   6.498 -10.578  1.00  0.00     0.189 C 
ATOM     17  C1  UNK     1      42.179   7.258  -9.872  1.00  0.00     0.183 C 
ATOM     18  C2  UNK     1      42.420   8.768  -9.907  1.00  0.00     0.205 C 
BRANCH  15  19
ATOM     19  C6  UNK     1      45.758   6.442 -10.964  1.00  0.00     0.172 C 
ATOM     20  O7  UNK     1      45.950   5.257 -11.193  1.00  0.00    -0.648 OA
BRANCH  19  21
ATOM     21  O6  UNK     1      46.516   7.448 -11.462  1.00  0.00    -0.774 OA
ATOM     22  H10 UNK     1      46.418   8.274 -10.941  1.00  0.00     0.167 HD
ENDBRANCH  19  21
ENDBRANCH  15  19
BRANCH  16  23
ATOM     23  O5  UNK     1      43.180   5.108 -10.282  1.00  0.00    -0.390 OA
ATOM     24  H8  UNK     1      43.424   4.607 -11.080  1.00  0.00     0.210 HD
ENDBRANCH  16  23
BRANCH  17  25
ATOM     25  O3  UNK     1      40.952   6.956 -10.540  1.00  0.00    -0.390 OA
ATOM     26  H6  UNK     1      40.977   6.019 -10.794  1.00  0.00     0.210 HD
ENDBRANCH  17  25
BRANCH  18  27
ATOM     27  O4  UNK     1      41.511   9.413  -9.015  1.00  0.00    -0.388 OA
ATOM     28  H7  UNK     1      40.776   8.800  -8.849  1.00  0.00     0.210 HD
ENDBRANCH  18  27
ENDBRANCH  12  13
ENDBRANCH   3  12
BRANCH   5  29
ATOM     29  O9  UNK     1      45.456  11.831 -11.625  1.00  0.00    -0.356 OA
ATOM     30  H12 UNK     1      45.277  12.778 -11.757  1.00  0.00     0.218 HD
ENDBRANCH   5  29
BRANCH   8  31
ATOM     31  O10 UNK     1      47.954  12.801 -11.111  1.00  0.00    -0.357 OA
ATOM     32  H13 UNK     1      48.272  12.170 -11.775  1.00  0.00     0.217 HD
ENDBRANCH   8  31
BRANCH  10  33
ATOM     33  C16 UNK     1      49.302  11.320  -4.899  1.00  0.00    -0.002 A 
ATOM     34  C17 UNK     1      49.713  10.038  -4.525  1.00  0.00     0.014 A 
ATOM     35  C19 UNK     1      50.118   9.788  -3.213  1.00  0.00     0.001 A 
ATOM     36  C21 UNK     1      50.113  10.817  -2.272  1.00  0.00     0.000 A 
ATOM     37  C20 UNK     1      49.703  12.098  -2.642  1.00  0.00     0.001 A 
ATOM     38  C18 UNK     1      49.298  12.349  -3.954  1.00  0.00     0.014 A 
ENDBRANCH  10  33
TORSDOF 10
ENDMDL
MODEL 8
REMARK VINA RESULT:      -4.9      1.454      3.004
REMARK  10 active torsions:
REMARK  status: ('A' for Active; 'I' for Inactive)
REMARK    1  A    between atoms: O2_2  and  C4_15 
REMARK    2  A    between atoms: O2_2  and  C7_18 
REMARK    3  A    between atoms: O3_3  and  C1_12 
REMARK    4  A    between atoms: O4_4  and  C2_13 
REMARK    5  A    between atoms: O5_5  and  C3_14 
REMARK    6  A    between atoms: O6_6  and  C6_17 
REMARK    7  A    between atoms: O9_9  and  C9_20 
REMARK    8  A    between atoms: O10_10  and  C12_23 
REMARK    9  A    between atoms: C5_16  and  C6_17 
REMARK   10  A    between atoms: C14_25  and  C16_27 
ROOT
ATOM      1  O8  UNK     1      44.718   8.811 -10.291  1.00  0.00    -0.309 OA
ATOM      2  O11 UNK     1      45.989   5.056 -11.231  1.00  0.00    -0.287 OA
ATOM      3  C7  UNK     1      48.285   9.486 -10.609  1.00  0.00     0.110 A 
ATOM      4  C8  UNK     1      46.918   9.664 -10.397  1.00  0.00     0.078 A 
ATOM      5  C9  UNK     1      48.785   8.225 -10.936  1.00  0.00     0.134 A 
ATOM      6  C10 UNK     1      46.051   8.576 -10.512  1.00  0.00     0.096 A 
ATOM      7  C11 UNK     1      46.553   7.317 -10.838  1.00  0.00     0.084 A 
ATOM      8  C12 UNK     1      47.922   7.136 -11.052  1.00  0.00     0.118 A 
ATOM      9  C13 UNK     1      45.618   6.188 -10.951  1.00  0.00     0.190 A 
ATOM     10  C14 UNK     1      43.832   7.750 -10.406  1.00  0.00     0.090 A 
ATOM     11  C15 UNK     1      44.193   6.493 -10.708  1.00  0.00     0.094 A 
ENDROOT
BRANCH   3  12
ATOM     12  O2  UNK     1      49.123  10.556 -10.495  1.00  0.00    -0.315 OA
BRANCH  12  13
ATOM     13  C4  UNK     1      49.701  10.781  -9.208  1.00  0.00     0.299 C 
ATOM     14  O1  UNK     1      49.122   9.889  -8.258  1.00  0.00    -0.340 OA
ATOM     15  C5  UNK     1      49.675  10.051  -6.957  1.00  0.00     0.253 C 
ATOM     16  C3  UNK     1      49.397  11.447  -6.413  1.00  0.00     0.189 C 
ATOM     17  C1  UNK     1      49.894  12.517  -7.387  1.00  0.00     0.183 C 
ATOM     18  C2  UNK     1      49.425  12.232  -8.814  1.00  0.00     0.205 C 
BRANCH  15  19
ATOM     19  C6  UNK     1      48.966   9.012  -6.151  1.00  0.00     0.172 C 
ATOM     20  O7  UNK     1      48.764   7.862  -6.510  1.00  0.00    -0.648 OA
BRANCH  19  21
ATOM     21  O6  UNK     1      48.568   9.520  -4.959  1.00  0.00    -0.774 OA
ATOM     22  H10 UNK     1      49.210  10.173  -4.606  1.00  0.00     0.167 HD
ENDBRANCH  19  21
ENDBRANCH  15  19
BRANCH  16  23
ATOM     23  O5  UNK     1      50.079  11.597  -5.169  1.00  0.00    -0.390 OA
ATOM     24  H8  UNK     1      50.788  12.253  -5.290  1.00  0.00     0.210 HD
ENDBRANCH  16  23
BRANCH  17  25
ATOM     25  O3  UNK     1      49.378  13.778  -6.958  1.00  0.00    -0.390 OA
ATOM     26  H6  UNK     1      50.009  14.155  -6.323  1.00  0.00     0.210 HD
ENDBRANCH  17  25
BRANCH  18  27
ATOM     27  O4  UNK     1      50.125  13.083  -9.721  1.00  0.00    -0.388 OA
ATOM     28  H7  UNK     1      51.017  12.717  -9.840  1.00  0.00     0.210 HD
ENDBRANCH  18  27
ENDBRANCH  12  13
ENDBRANCH   3  12
BRANCH   5  29
ATOM     29  O9  UNK     1      50.125   8.060 -11.142  1.00  0.00    -0.356 OA
ATOM     30  H12 UNK     1      50.398   8.645 -11.871  1.00  0.00     0.218 HD
ENDBRANCH   5  29
BRANCH   8  31
ATOM     31  O10 UNK     1      48.448   5.920 -11.372  1.00  0.00    -0.357 OA
ATOM     32  H13 UNK     1      48.287   5.278 -10.664  1.00  0.00     0.217 HD
ENDBRANCH   8  31
BRANCH  10  33
ATOM     33  C16 UNK     1      42.424   8.113 -10.144  1.00  0.00    -0.002 A 
ATOM     34  C17 UNK     1      41.963   9.397 -10.445  1.00  0.00     0.014 A 
ATOM     35  C19 UNK     1      40.633   9.739 -10.198  1.00  0.00     0.001 A 
ATOM     36  C21 UNK     1      39.761   8.799  -9.650  1.00  0.00     0.000 A 
ATOM     37  C20 UNK     1      40.218   7.516  -9.348  1.00  0.00     0.001 A 
ATOM     38  C18 UNK     1      41.548   7.174  -9.595  1.00  0.00     0.014 A 
ENDBRANCH  10  33
TORSDOF 10
ENDMDL
MODEL 9
REMARK VINA RESULT:      -4.9      2.191      7.990
REMARK  10 active torsions:
REMARK  status: ('A' for Active; 'I' for Inactive)
REMARK    1  A    between atoms: O2_2  and  C4_15 
REMARK    2  A    between atoms: O2_2  and  C7_18 
REMARK    3  A    between atoms: O3_3  and  C1_12 
REMARK    4  A    between atoms: O4_4  and  C2_13 
REMARK    5  A    between atoms: O5_5  and  C3_14 
REMARK    6  A    between atoms: O6_6  and  C6_17 
REMARK    7  A    between atoms: O9_9  and  C9_20 
REMARK    8  A    between atoms: O10_10  and  C12_23 
REMARK    9  A    between atoms: C5_16  and  C6_17 
REMARK   10  A    between atoms: C14_25  and  C16_27 
ROOT
ATOM      1  O8  UNK     1      47.646  10.026  -7.274  1.00  0.00    -0.309 OA
ATOM      2  O11 UNK     1      50.122   6.847  -7.879  1.00  0.00    -0.287 OA
ATOM      3  C7  UNK     1      46.086   8.659 -10.270  1.00  0.00     0.110 A 
ATOM      4  C8  UNK     1      46.354   9.477  -9.173  1.00  0.00     0.078 A 
ATOM      5  C9  UNK     1      46.895   7.553 -10.533  1.00  0.00     0.134 A 
ATOM      6  C10 UNK     1      47.433   9.186  -8.337  1.00  0.00     0.096 A 
ATOM      7  C11 UNK     1      48.239   8.081  -8.602  1.00  0.00     0.084 A 
ATOM      8  C12 UNK     1      47.975   7.259  -9.700  1.00  0.00     0.118 A 
ATOM      9  C13 UNK     1      49.371   7.798  -7.705  1.00  0.00     0.190 A 
ATOM     10  C14 UNK     1      48.707   9.758  -6.423  1.00  0.00     0.090 A 
ATOM     11  C15 UNK     1      49.556   8.730  -6.574  1.00  0.00     0.094 A 
ENDROOT
BRANCH   3  12
ATOM     12  O2  UNK     1      45.029   8.952 -11.081  1.00  0.00    -0.315 OA
BRANCH  12  13
ATOM     13  C4  UNK     1      43.815   9.338 -10.434  1.00  0.00     0.299 C 
ATOM     14  O1  UNK     1      42.925   8.226 -10.379  1.00  0.00    -0.340 OA
ATOM     15  C5  UNK     1      41.703   8.544  -9.723  1.00  0.00     0.253 C 
ATOM     16  C3  UNK     1      40.941   9.626 -10.479  1.00  0.00     0.189 C 
ATOM     17  C1  UNK     1      41.819  10.860 -10.689  1.00  0.00     0.183 C 
ATOM     18  C2  UNK     1      43.193  10.479 -11.240  1.00  0.00     0.205 C 
BRANCH  15  19
ATOM     19  C6  UNK     1      40.956   7.250  -9.744  1.00  0.00     0.172 C 
ATOM     20  O7  UNK     1      39.741   7.140  -9.665  1.00  0.00    -0.648 OA
BRANCH  19  21
ATOM     21  O6  UNK     1      41.811   6.205  -9.861  1.00  0.00    -0.774 OA
ATOM     22  H10 UNK     1      42.686   6.484 -10.207  1.00  0.00     0.167 HD
ENDBRANCH  19  21
ENDBRANCH  15  19
BRANCH  16  23
ATOM     23  O5  UNK     1      39.794   9.996  -9.716  1.00  0.00    -0.390 OA
ATOM     24  H8  UNK     1      39.234  10.566 -10.269  1.00  0.00     0.210 HD
ENDBRANCH  16  23
BRANCH  17  25
ATOM     25  O3  UNK     1      41.156  11.721 -11.617  1.00  0.00    -0.390 OA
ATOM     26  H6  UNK     1      40.212  11.729 -11.390  1.00  0.00     0.210 HD
ENDBRANCH  17  25
BRANCH  18  27
ATOM     27  O4  UNK     1      44.064  11.608 -11.164  1.00  0.00    -0.388 OA
ATOM     28  H7  UNK     1      44.569  11.647 -11.993  1.00  0.00     0.210 HD
ENDBRANCH  18  27
ENDBRANCH  12  13
ENDBRANCH   3  12
BRANCH   5  29
ATOM     29  O9  UNK     1      46.627   6.757 -11.609  1.00  0.00    -0.356 OA
ATOM     30  H12 UNK     1      47.383   6.160 -11.747  1.00  0.00     0.218 HD
ENDBRANCH   5  29
BRANCH   8  31
ATOM     31  O10 UNK     1      48.742   6.170  -9.989  1.00  0.00    -0.357 OA
ATOM     32  H13 UNK     1      48.220   5.493 -10.446  1.00  0.00     0.217 HD
ENDBRANCH   8  31
BRANCH  10  33
ATOM     33  C16 UNK     1      48.849  10.726  -5.316  1.00  0.00    -0.002 A 
ATOM     34  C17 UNK     1      49.449  10.337  -4.116  1.00  0.00     0.014 A 
ATOM     35  C19 UNK     1      49.583  11.252  -3.071  1.00  0.00     0.001 A 
ATOM     36  C21 UNK     1      49.119  12.558  -3.224  1.00  0.00     0.000 A 
ATOM     37  C20 UNK     1      48.519  12.950  -4.421  1.00  0.00     0.001 A 
ATOM     38  C18 UNK     1      48.385  12.035  -5.465  1.00  0.00     0.014 A 
ENDBRANCH  10  33
TORSDOF 10
ENDMDL
MODEL 10
REMARK VINA RESULT:      -4.7      2.415      4.366
REMARK  10 active torsions:
REMARK  status: ('A' for Active; 'I' for Inactive)
REMARK    1  A    between atoms: O2_2  and  C4_15 
REMARK    2  A    between atoms: O2_2  and  C7_18 
REMARK    3  A    between atoms: O3_3  and  C1_12 
REMARK    4  A    between atoms: O4_4  and  C2_13 
REMARK    5  A    between atoms: O5_5  and  C3_14 
REMARK    6  A    between atoms: O6_6  and  C6_17 
REMARK    7  A    between atoms: O9_9  and  C9_20 
REMARK    8  A    between atoms: O10_10  and  C12_23 
REMARK    9  A    between atoms: C5_16  and  C6_17 
REMARK   10  A    between atoms: C14_25  and  C16_27 
ROOT
ATOM      1  O8  UNK     1      44.809   9.643 -10.156  1.00  0.00    -0.309 OA
ATOM      2  O11 UNK     1      43.705  13.301 -11.569  1.00  0.00    -0.287 OA
ATOM      3  C7  UNK     1      48.111  11.160 -10.430  1.00  0.00     0.110 A 
ATOM      4  C8  UNK     1      47.094  10.238 -10.182  1.00  0.00     0.078 A 
ATOM      5  C9  UNK     1      47.800  12.432 -10.914  1.00  0.00     0.134 A 
ATOM      6  C10 UNK     1      45.764  10.591 -10.418  1.00  0.00     0.096 A 
ATOM      7  C11 UNK     1      45.457  11.861 -10.901  1.00  0.00     0.084 A 
ATOM      8  C12 UNK     1      46.473  12.788 -11.151  1.00  0.00     0.118 A 
ATOM      9  C13 UNK     1      44.048  12.206 -11.143  1.00  0.00     0.190 A 
ATOM     10  C14 UNK     1      43.479   9.968 -10.374  1.00  0.00     0.090 A 
ATOM     11  C15 UNK     1      43.057  11.153 -10.842  1.00  0.00     0.094 A 
ENDROOT
BRANCH   3  12
ATOM     12  O2  UNK     1      49.407  10.806 -10.196  1.00  0.00    -0.315 OA
BRANCH  12  13
ATOM     13  C4  UNK     1      49.751  10.495  -8.845  1.00  0.00     0.299 C 
ATOM     14  O1  UNK     1      49.172   9.246  -8.476  1.00  0.00    -0.340 OA
ATOM     15  C5  UNK     1      49.499   8.871  -7.143  1.00  0.00     0.253 C 
ATOM     16  C3  UNK     1      48.947   9.877  -6.140  1.00  0.00     0.189 C 
ATOM     17  C1  UNK     1      49.421  11.291  -6.473  1.00  0.00     0.183 C 
ATOM     18  C2  UNK     1      49.213  11.615  -7.953  1.00  0.00     0.205 C 
BRANCH  15  19
ATOM     19  C6  UNK     1      48.836   7.541  -6.988  1.00  0.00     0.172 C 
ATOM     20  O7  UNK     1      49.241   6.494  -7.471  1.00  0.00    -0.648 OA
BRANCH  19  21
ATOM     21  O6  UNK     1      47.714   7.651  -6.236  1.00  0.00    -0.774 OA
ATOM     22  H10 UNK     1      47.031   6.998  -6.499  1.00  0.00     0.167 HD
ENDBRANCH  19  21
ENDBRANCH  15  19
BRANCH  16  23
ATOM     23  O5  UNK     1      49.409   9.524  -4.837  1.00  0.00    -0.390 OA
ATOM     24  H8  UNK     1      49.294   8.565  -4.725  1.00  0.00     0.210 HD
ENDBRANCH  16  23
BRANCH  17  25
ATOM     25  O3  UNK     1      48.672  12.208  -5.675  1.00  0.00    -0.390 OA
ATOM     26  H6  UNK     1      48.129  12.747  -6.274  1.00  0.00     0.210 HD
ENDBRANCH  17  25
BRANCH  18  27
ATOM     27  O4  UNK     1      49.910  12.819  -8.277  1.00  0.00    -0.388 OA
ATOM     28  H7  UNK     1      50.429  12.651  -9.081  1.00  0.00     0.210 HD
ENDBRANCH  18  27
ENDBRANCH  12  13
ENDBRANCH   3  12
BRANCH   5  29
ATOM     29  O9  UNK     1      48.801  13.328 -11.155  1.00  0.00    -0.356 OA
ATOM     30  H12 UNK     1      49.303  13.458 -10.331  1.00  0.00     0.218 HD
ENDBRANCH   5  29
BRANCH   8  31
ATOM     31  O10 UNK     1      46.209  14.039 -11.624  1.00  0.00    -0.357 OA
ATOM     32  H13 UNK     1      45.279  14.270 -11.483  1.00  0.00     0.217 HD
ENDBRANCH   8  31
BRANCH  10  33
ATOM     33  C16 UNK     1      42.535   8.874 -10.065  1.00  0.00    -0.002 A 
ATOM     34  C17 UNK     1      41.202   9.163  -9.760  1.00  0.00     0.014 A 
ATOM     35  C19 UNK     1      40.311   8.130  -9.469  1.00  0.00     0.001 A 
ATOM     36  C21 UNK     1      40.749   6.806  -9.481  1.00  0.00     0.000 A 
ATOM     37  C20 UNK     1      42.079   6.514  -9.784  1.00  0.00     0.001 A 
ATOM     38  C18 UNK     1      42.970   7.547 -10.076  1.00  0.00     0.014 A 
ENDBRANCH  10  33
TORSDOF 10
ENDMDL
MODEL 11
REMARK VINA RESULT:      -4.7      3.252      4.087
REMARK  10 active torsions:
REMARK  status: ('A' for Active; 'I' for Inactive)
REMARK    1  A    between atoms: O2_2  and  C4_15 
REMARK    2  A    between atoms: O2_2  and  C7_18 
REMARK    3  A    between atoms: O3_3  and  C1_12 
REMARK    4  A    between atoms: O4_4  and  C2_13 
REMARK    5  A    between atoms: O5_5  and  C3_14 
REMARK    6  A    between atoms: O6_6  and  C6_17 
REMARK    7  A    between atoms: O9_9  and  C9_20 
REMARK    8  A    between atoms: O10_10  and  C12_23 
REMARK    9  A    between atoms: C5_16  and  C6_17 
REMARK   10  A    between atoms: C14_25  and  C16_27 
ROOT
ATOM      1  O8  UNK     1      45.323  12.804  -9.612  1.00  0.00    -0.309 OA
ATOM      2  O11 UNK     1      43.748   9.611 -11.594  1.00  0.00    -0.287 OA
ATOM      3  C7  UNK     1      47.551  10.208  -8.358  1.00  0.00     0.110 A 
ATOM      4  C8  UNK     1      46.955  11.451  -8.573  1.00  0.00     0.078 A 
ATOM      5  C9  UNK     1      47.061   9.074  -9.007  1.00  0.00     0.134 A 
ATOM      6  C10 UNK     1      45.867  11.557  -9.441  1.00  0.00     0.096 A 
ATOM      7  C11 UNK     1      45.379  10.423 -10.087  1.00  0.00     0.084 A 
ATOM      8  C12 UNK     1      45.973   9.177  -9.874  1.00  0.00     0.118 A 
ATOM      9  C13 UNK     1      44.230  10.564 -10.995  1.00  0.00     0.190 A 
ATOM     10  C14 UNK     1      44.245  12.942 -10.474  1.00  0.00     0.090 A 
ATOM     11  C15 UNK     1      43.683  11.927 -11.149  1.00  0.00     0.094 A 
ENDROOT
BRANCH   3  12
ATOM     12  O2  UNK     1      48.614  10.115  -7.508  1.00  0.00    -0.315 OA
BRANCH  12  13
ATOM     13  C4  UNK     1      48.455  10.703  -6.217  1.00  0.00     0.299 C 
ATOM     14  O1  UNK     1      48.984  12.026  -6.222  1.00  0.00    -0.340 OA
ATOM     15  C5  UNK     1      48.833  12.675  -4.964  1.00  0.00     0.253 C 
ATOM     16  C3  UNK     1      49.605  11.941  -3.874  1.00  0.00     0.189 C 
ATOM     17  C1  UNK     1      49.196  10.470  -3.816  1.00  0.00     0.183 C 
ATOM     18  C2  UNK     1      49.204   9.833  -5.207  1.00  0.00     0.205 C 
BRANCH  15  19
ATOM     19  C6  UNK     1      49.408  14.032  -5.206  1.00  0.00     0.172 C 
ATOM     20  O7  UNK     1      49.995  14.375  -6.222  1.00  0.00    -0.648 OA
BRANCH  19  21
ATOM     21  O6  UNK     1      49.193  14.840  -4.139  1.00  0.00    -0.774 OA
ATOM     22  H10 UNK     1      49.572  15.735  -4.275  1.00  0.00     0.167 HD
ENDBRANCH  19  21
ENDBRANCH  15  19
BRANCH  16  23
ATOM     23  O5  UNK     1      49.318  12.554  -2.619  1.00  0.00    -0.390 OA
ATOM     24  H8  UNK     1      50.113  12.490  -2.062  1.00  0.00     0.210 HD
ENDBRANCH  16  23
BRANCH  17  25
ATOM     25  O3  UNK     1      50.125   9.785  -2.974  1.00  0.00    -0.390 OA
ATOM     26  H6  UNK     1      50.242   8.889  -3.330  1.00  0.00     0.210 HD
ENDBRANCH  17  25
BRANCH  18  27
ATOM     27  O4  UNK     1      48.562   8.560  -5.149  1.00  0.00    -0.388 OA
ATOM     28  H7  UNK     1      47.660   8.699  -4.815  1.00  0.00     0.210 HD
ENDBRANCH  18  27
ENDBRANCH  12  13
ENDBRANCH   3  12
BRANCH   5  29
ATOM     29  O9  UNK     1      47.649   7.861  -8.790  1.00  0.00    -0.356 OA
ATOM     30  H12 UNK     1      46.961   7.174  -8.828  1.00  0.00     0.218 HD
ENDBRANCH   5  29
BRANCH   8  31
ATOM     31  O10 UNK     1      45.523   8.047 -10.489  1.00  0.00    -0.357 OA
ATOM     32  H13 UNK     1      46.194   7.694 -11.093  1.00  0.00     0.217 HD
ENDBRANCH   8  31
BRANCH  10  33
ATOM     33  C16 UNK     1      43.735  14.324 -10.581  1.00  0.00    -0.002 A 
ATOM     34  C17 UNK     1      44.280  15.201 -11.523  1.00  0.00     0.014 A 
ATOM     35  C19 UNK     1      43.797  16.506 -11.625  1.00  0.00     0.001 A 
ATOM     36  C21 UNK     1      42.769  16.938 -10.787  1.00  0.00     0.000 A 
ATOM     37  C20 UNK     1      42.223  16.064  -9.846  1.00  0.00     0.001 A 
ATOM     38  C18 UNK     1      42.706  14.759  -9.744  1.00  0.00     0.014 A 
ENDBRANCH  10  33
TORSDOF 10
ENDMDL
MODEL 12
REMARK VINA RESULT:      -4.2      3.227      4.631
REMARK  10 active torsions:
REMARK  status: ('A' for Active; 'I' for Inactive)
REMARK    1  A    between atoms: O2_2  and  C4_15 
REMARK    2  A    between atoms: O2_2  and  C7_18 
REMARK    3  A    between atoms: O3_3  and  C1_12 
REMARK    4  A    between atoms: O4_4  and  C2_13 
REMARK    5  A    between atoms: O5_5  and  C3_14 
REMARK    6  A    between atoms: O6_6  and  C6_17 
REMARK    7  A    between atoms: O9_9  and  C9_20 
REMARK    8  A    between atoms: O10_10  and  C12_23 
REMARK    9  A    between atoms: C5_16  and  C6_17 
REMARK   10  A    between atoms: C14_25  and  C16_27 
ROOT
ATOM      1  O8  UNK     1      45.350  11.990 -10.097  1.00  0.00    -0.309 OA
ATOM      2  O11 UNK     1      42.645   9.305 -11.539  1.00  0.00    -0.287 OA
ATOM      3  C7  UNK     1      47.172   8.916  -9.383  1.00  0.00     0.110 A 
ATOM      4  C8  UNK     1      46.840  10.268  -9.471  1.00  0.00     0.078 A 
ATOM      5  C9  UNK     1      46.290   7.945  -9.859  1.00  0.00     0.134 A 
ATOM      6  C10 UNK     1      45.622  10.647 -10.039  1.00  0.00     0.096 A 
ATOM      7  C11 UNK     1      44.743   9.675 -10.513  1.00  0.00     0.084 A 
ATOM      8  C12 UNK     1      45.072   8.321 -10.426  1.00  0.00     0.118 A 
ATOM      9  C13 UNK     1      43.465  10.103 -11.104  1.00  0.00     0.190 A 
ATOM     10  C14 UNK     1      44.151  12.397 -10.662  1.00  0.00     0.090 A 
ATOM     11  C15 UNK     1      43.222  11.559 -11.148  1.00  0.00     0.094 A 
ENDROOT
BRANCH   3  12
ATOM     12  O2  UNK     1      48.365   8.556  -8.827  1.00  0.00    -0.315 OA
BRANCH  12  13
ATOM     13  C4  UNK     1      49.098   9.586  -8.165  1.00  0.00     0.299 C 
ATOM     14  O1  UNK     1      48.377  10.029  -7.017  1.00  0.00    -0.340 OA
ATOM     15  C5  UNK     1      49.071  11.044  -6.300  1.00  0.00     0.253 C 
ATOM     16  C3  UNK     1      49.259  12.290  -7.158  1.00  0.00     0.189 C 
ATOM     17  C1  UNK     1      49.949  11.941  -8.476  1.00  0.00     0.183 C 
ATOM     18  C2  UNK     1      49.289  10.739  -9.151  1.00  0.00     0.205 C 
BRANCH  15  19
ATOM     19  C6  UNK     1      48.171  11.323  -5.141  1.00  0.00     0.172 C 
ATOM     20  O7  UNK     1      47.204  12.070  -5.168  1.00  0.00    -0.648 OA
BRANCH  19  21
ATOM     21  O6  UNK     1      48.573  10.634  -4.046  1.00  0.00    -0.774 OA
ATOM     22  H10 UNK     1      49.520  10.383  -4.097  1.00  0.00     0.167 HD
ENDBRANCH  19  21
ENDBRANCH  15  19
BRANCH  16  23
ATOM     23  O5  UNK     1      50.066  13.221  -6.441  1.00  0.00    -0.390 OA
ATOM     24  H8  UNK     1      50.930  13.277  -6.885  1.00  0.00     0.210 HD
ENDBRANCH  16  23
BRANCH  17  25
ATOM     25  O3  UNK     1      49.861  13.078  -9.336  1.00  0.00    -0.390 OA
ATOM     26  H6  UNK     1      49.150  12.910  -9.977  1.00  0.00     0.210 HD
ENDBRANCH  17  25
BRANCH  18  27
ATOM     27  O4  UNK     1      50.118  10.281 -10.220  1.00  0.00    -0.388 OA
ATOM     28  H7  UNK     1      51.042  10.431  -9.961  1.00  0.00     0.210 HD
ENDBRANCH  18  27
ENDBRANCH  12  13
ENDBRANCH   3  12
BRANCH   5  29
ATOM     29  O9  UNK     1      46.623   6.624  -9.768  1.00  0.00    -0.356 OA
ATOM     30  H12 UNK     1      46.100   6.224  -9.052  1.00  0.00     0.218 HD
ENDBRANCH   5  29
BRANCH   8  31
ATOM     31  O10 UNK     1      44.237   7.344 -10.880  1.00  0.00    -0.357 OA
ATOM     32  H13 UNK     1      43.487   7.226 -10.279  1.00  0.00     0.217 HD
ENDBRANCH   8  31
BRANCH  10  33
ATOM     33  C16 UNK     1      43.958  13.861 -10.671  1.00  0.00    -0.002 A 
ATOM     34  C17 UNK     1      44.622  14.651 -11.613  1.00  0.00     0.014 A 
ATOM     35  C19 UNK     1      44.439  16.034 -11.622  1.00  0.00     0.001 A 
ATOM     36  C21 UNK     1      43.591  16.631 -10.690  1.00  0.00     0.000 A 
ATOM     37  C20 UNK     1      42.926  15.846  -9.748  1.00  0.00     0.001 A 
ATOM     38  C18 UNK     1      43.109  14.463  -9.740  1.00  0.00     0.014 A 
ENDBRANCH  10  33
TORSDOF 10
ENDMDL
MODEL 13
REMARK VINA RESULT:      -4.0      2.139      8.088
REMARK  10 active torsions:
REMARK  status: ('A' for Active; 'I' for Inactive)
REMARK    1  A    between atoms: O2_2  and  C4_15 
REMARK    2  A    between atoms: O2_2  and  C7_18 
REMARK    3  A    between atoms: O3_3  and  C1_12 
REMARK    4  A    between atoms: O4_4  and  C2_13 
REMARK    5  A    between atoms: O5_5  and  C3_14 
REMARK    6  A    between atoms: O6_6  and  C6_17 
REMARK    7  A    between atoms: O9_9  and  C9_20 
REMARK    8  A    between atoms: O10_10  and  C12_23 
REMARK    9  A    between atoms: C5_16  and  C6_17 
REMARK   10  A    between atoms: C14_25  and  C16_27 
ROOT
ATOM      1  O8  UNK     1      48.683   9.932  -6.276  1.00  0.00    -0.309 OA
ATOM      2  O11 UNK     1      49.505  13.032  -8.789  1.00  0.00    -0.287 OA
ATOM      3  C7  UNK     1      47.508   8.456  -9.393  1.00  0.00     0.110 A 
ATOM      4  C8  UNK     1      47.823   8.627  -8.045  1.00  0.00     0.078 A 
ATOM      5  C9  UNK     1      47.766   9.479 -10.307  1.00  0.00     0.134 A 
ATOM      6  C10 UNK     1      48.397   9.823  -7.612  1.00  0.00     0.096 A 
ATOM      7  C11 UNK     1      48.652  10.843  -8.527  1.00  0.00     0.084 A 
ATOM      8  C12 UNK     1      48.339  10.676  -9.878  1.00  0.00     0.118 A 
ATOM      9  C13 UNK     1      49.256  12.094  -8.043  1.00  0.00     0.190 A 
ATOM     10  C14 UNK     1      49.261  11.107  -5.818  1.00  0.00     0.090 A 
ATOM     11  C15 UNK     1      49.549  12.161  -6.597  1.00  0.00     0.094 A 
ENDROOT
BRANCH   3  12
ATOM     12  O2  UNK     1      46.948   7.283  -9.806  1.00  0.00    -0.315 OA
BRANCH  12  13
ATOM     13  C4  UNK     1      45.716   7.380 -10.522  1.00  0.00     0.299 C 
ATOM     14  O1  UNK     1      44.937   8.452  -9.996  1.00  0.00    -0.340 OA
ATOM     15  C5  UNK     1      43.703   8.613 -10.686  1.00  0.00     0.253 C 
ATOM     16  C3  UNK     1      42.827   7.374 -10.537  1.00  0.00     0.189 C 
ATOM     17  C1  UNK     1      43.579   6.122 -10.986  1.00  0.00     0.183 C 
ATOM     18  C2  UNK     1      44.973   6.053 -10.362  1.00  0.00     0.205 C 
BRANCH  15  19
ATOM     19  C6  UNK     1      43.082   9.791 -10.009  1.00  0.00     0.172 C 
ATOM     20  O7  UNK     1      43.540  10.924 -10.012  1.00  0.00    -0.648 OA
BRANCH  19  21
ATOM     21  O6  UNK     1      41.935   9.434  -9.382  1.00  0.00    -0.774 OA
ATOM     22  H10 UNK     1      41.458  10.211  -9.019  1.00  0.00     0.167 HD
ENDBRANCH  19  21
ENDBRANCH  15  19
BRANCH  16  23
ATOM     23  O5  UNK     1      41.664   7.536 -11.348  1.00  0.00    -0.390 OA
ATOM     24  H8  UNK     1      41.928   7.431 -12.278  1.00  0.00     0.210 HD
ENDBRANCH  16  23
BRANCH  17  25
ATOM     25  O3  UNK     1      42.819   4.981 -10.583  1.00  0.00    -0.390 OA
ATOM     26  H6  UNK     1      42.281   5.240  -9.817  1.00  0.00     0.210 HD
ENDBRANCH  17  25
BRANCH  18  27
ATOM     27  O4  UNK     1      45.733   5.033 -11.010  1.00  0.00    -0.388 OA
ATOM     28  H7  UNK     1      45.906   5.327 -11.919  1.00  0.00     0.210 HD
ENDBRANCH  18  27
ENDBRANCH  12  13
ENDBRANCH   3  12
BRANCH   5  29
ATOM     29  O9  UNK     1      47.454   9.305 -11.625  1.00  0.00    -0.356 OA
ATOM     30  H12 UNK     1      46.622   9.774 -11.809  1.00  0.00     0.218 HD
ENDBRANCH   5  29
BRANCH   8  31
ATOM     31  O10 UNK     1      48.575  11.652 -10.800  1.00  0.00    -0.357 OA
ATOM     32  H13 UNK     1      47.978  11.561 -11.558  1.00  0.00     0.217 HD
ENDBRANCH   8  31
BRANCH  10  33
ATOM     33  C16 UNK     1      49.523  11.120  -4.364  1.00  0.00    -0.002 A 
ATOM     34  C17 UNK     1      49.876   9.940  -3.705  1.00  0.00     0.014 A 
ATOM     35  C19 UNK     1      50.125   9.953  -2.332  1.00  0.00     0.001 A 
ATOM     36  C21 UNK     1      50.022  11.144  -1.615  1.00  0.00     0.000 A 
ATOM     37  C20 UNK     1      49.670  12.324  -2.270  1.00  0.00     0.001 A 
ATOM     38  C18 UNK     1      49.421  12.312  -3.643  1.00  0.00     0.014 A 
ENDBRANCH  10  33
TORSDOF 10
ENDMDL
MODEL 14
REMARK VINA RESULT:      -3.9      1.304      2.451
REMARK  10 active torsions:
REMARK  status: ('A' for Active; 'I' for Inactive)
REMARK    1  A    between atoms: O2_2  and  C4_15 
REMARK    2  A    between atoms: O2_2  and  C7_18 
REMARK    3  A    between atoms: O3_3  and  C1_12 
REMARK    4  A    between atoms: O4_4  and  C2_13 
REMARK    5  A    between atoms: O5_5  and  C3_14 
REMARK    6  A    between atoms: O6_6  and  C6_17 
REMARK    7  A    between atoms: O9_9  and  C9_20 
REMARK    8  A    between atoms: O10_10  and  C12_23 
REMARK    9  A    between atoms: C5_16  and  C6_17 
REMARK   10  A    between atoms: C14_25  and  C16_27 
ROOT
ATOM      1  O8  UNK     1      45.176   9.052  -9.206  1.00  0.00    -0.309 OA
ATOM      2  O11 UNK     1      46.741   6.171 -11.625  1.00  0.00    -0.287 OA
ATOM      3  C7  UNK     1      48.309   8.472  -7.437  1.00  0.00     0.110 A 
ATOM      4  C8  UNK     1      47.059   8.986  -7.782  1.00  0.00     0.078 A 
ATOM      5  C9  UNK     1      48.901   7.484  -8.224  1.00  0.00     0.134 A 
ATOM      6  C10 UNK     1      46.402   8.509  -8.918  1.00  0.00     0.096 A 
ATOM      7  C11 UNK     1      46.996   7.522  -9.702  1.00  0.00     0.084 A 
ATOM      8  C12 UNK     1      48.248   7.005  -9.360  1.00  0.00     0.118 A 
ATOM      9  C13 UNK     1      46.281   7.037 -10.892  1.00  0.00     0.190 A 
ATOM     10  C14 UNK     1      44.503   8.603 -10.332  1.00  0.00     0.090 A 
ATOM     11  C15 UNK     1      44.967   7.655 -11.161  1.00  0.00     0.094 A 
ENDROOT
BRANCH   3  12
ATOM     12  O2  UNK     1      48.942   8.945  -6.325  1.00  0.00    -0.315 OA
BRANCH  12  13
ATOM     13  C4  UNK     1      49.409  10.293  -6.380  1.00  0.00     0.299 C 
ATOM     14  O1  UNK     1      48.646  11.103  -5.489  1.00  0.00    -0.340 OA
ATOM     15  C5  UNK     1      49.081  12.458  -5.483  1.00  0.00     0.253 C 
ATOM     16  C3  UNK     1      48.900  13.097  -6.855  1.00  0.00     0.189 C 
ATOM     17  C1  UNK     1      49.602  12.272  -7.934  1.00  0.00     0.183 C 
ATOM     18  C2  UNK     1      49.251  10.789  -7.818  1.00  0.00     0.205 C 
BRANCH  15  19
ATOM     19  C6  UNK     1      48.188  13.101  -4.472  1.00  0.00     0.172 C 
ATOM     20  O7  UNK     1      47.774  14.249  -4.530  1.00  0.00    -0.648 OA
BRANCH  19  21
ATOM     21  O6  UNK     1      47.896  12.234  -3.472  1.00  0.00    -0.774 OA
ATOM     22  H10 UNK     1      48.559  12.271  -2.750  1.00  0.00     0.167 HD
ENDBRANCH  19  21
ENDBRANCH  15  19
BRANCH  16  23
ATOM     23  O5  UNK     1      49.466  14.406  -6.827  1.00  0.00    -0.390 OA
ATOM     24  H8  UNK     1      49.019  14.943  -7.505  1.00  0.00     0.210 HD
ENDBRANCH  16  23
BRANCH  17  25
ATOM     25  O3  UNK     1      49.184  12.763  -9.208  1.00  0.00    -0.390 OA
ATOM     26  H6  UNK     1      48.534  13.469  -9.055  1.00  0.00     0.210 HD
ENDBRANCH  17  25
BRANCH  18  27
ATOM     27  O4  UNK     1      50.125  10.028  -8.652  1.00  0.00    -0.388 OA
ATOM     28  H7  UNK     1      49.659   9.213  -8.902  1.00  0.00     0.210 HD
ENDBRANCH  18  27
ENDBRANCH  12  13
ENDBRANCH   3  12
BRANCH   5  29
ATOM     29  O9  UNK     1      50.125   6.986  -7.879  1.00  0.00    -0.356 OA
ATOM     30  H12 UNK     1      50.007   6.368  -7.137  1.00  0.00     0.218 HD
ENDBRANCH   5  29
BRANCH   8  31
ATOM     31  O10 UNK     1      48.859   6.040 -10.103  1.00  0.00    -0.357 OA
ATOM     32  H13 UNK     1      49.613   6.406 -10.589  1.00  0.00     0.217 HD
ENDBRANCH   8  31
BRANCH  10  33
ATOM     33  C16 UNK     1      43.192   9.249 -10.546  1.00  0.00    -0.002 A 
ATOM     34  C17 UNK     1      43.079  10.332 -11.422  1.00  0.00     0.014 A 
ATOM     35  C19 UNK     1      41.841  10.942 -11.624  1.00  0.00     0.001 A 
ATOM     36  C21 UNK     1      40.712  10.471 -10.953  1.00  0.00     0.000 A 
ATOM     37  C20 UNK     1      40.822   9.390 -10.078  1.00  0.00     0.001 A 
ATOM     38  C18 UNK     1      42.061   8.781  -9.875  1.00  0.00     0.014 A 
ENDBRANCH  10  33
TORSDOF 10
ENDMDL
MODEL 15
REMARK VINA RESULT:      -3.9      2.881      6.977
REMARK  10 active torsions:
REMARK  status: ('A' for Active; 'I' for Inactive)
REMARK    1  A    between atoms: O2_2  and  C4_15 
REMARK    2  A    between atoms: O2_2  and  C7_18 
REMARK    3  A    between atoms: O3_3  and  C1_12 
REMARK    4  A    between atoms: O4_4  and  C2_13 
REMARK    5  A    between atoms: O5_5  and  C3_14 
REMARK    6  A    between atoms: O6_6  and  C6_17 
REMARK    7  A    between atoms: O9_9  and  C9_20 
REMARK    8  A    between atoms: O10_10  and  C12_23 
REMARK    9  A    between atoms: C5_16  and  C6_17 
REMARK   10  A    between atoms: C14_25  and  C16_27 
ROOT
ATOM      1  O8  UNK     1      47.903   9.835  -7.021  1.00  0.00    -0.309 OA
ATOM      2  O11 UNK     1      50.008   6.491  -8.012  1.00  0.00    -0.287 OA
ATOM      3  C7  UNK     1      45.931   8.757  -9.890  1.00  0.00     0.110 A 
ATOM      4  C8  UNK     1      46.380   9.494  -8.794  1.00  0.00     0.078 A 
ATOM      5  C9  UNK     1      46.606   7.601 -10.281  1.00  0.00     0.134 A 
ATOM      6  C10 UNK     1      47.508   9.070  -8.088  1.00  0.00     0.096 A 
ATOM      7  C11 UNK     1      48.181   7.915  -8.482  1.00  0.00     0.084 A 
ATOM      8  C12 UNK     1      47.734   7.175  -9.579  1.00  0.00     0.118 A 
ATOM      9  C13 UNK     1      49.368   7.493  -7.722  1.00  0.00     0.190 A 
ATOM     10  C14 UNK     1      49.016   9.435  -6.297  1.00  0.00     0.090 A 
ATOM     11  C15 UNK     1      49.749   8.347  -6.580  1.00  0.00     0.094 A 
ENDROOT
BRANCH   3  12
ATOM     12  O2  UNK     1      44.827   9.180 -10.572  1.00  0.00    -0.315 OA
BRANCH  12  13
ATOM     13  C4  UNK     1      44.897  10.480 -11.158  1.00  0.00     0.299 C 
ATOM     14  O1  UNK     1      46.219  10.997 -11.027  1.00  0.00    -0.340 OA
ATOM     15  C5  UNK     1      46.357  12.286 -11.615  1.00  0.00     0.253 C 
ATOM     16  C3  UNK     1      45.461  13.303 -10.918  1.00  0.00     0.189 C 
ATOM     17  C1  UNK     1      44.008  12.828 -10.906  1.00  0.00     0.183 C 
ATOM     18  C2  UNK     1      43.899  11.380 -10.428  1.00  0.00     0.205 C 
BRANCH  15  19
ATOM     19  C6  UNK     1      47.800  12.608 -11.401  1.00  0.00     0.172 C 
ATOM     20  O7  UNK     1      48.300  13.714 -11.540  1.00  0.00    -0.648 OA
BRANCH  19  21
ATOM     21  O6  UNK     1      48.488  11.500 -11.032  1.00  0.00    -0.774 OA
ATOM     22  H10 UNK     1      47.942  10.688 -11.105  1.00  0.00     0.167 HD
ENDBRANCH  19  21
ENDBRANCH  15  19
BRANCH  16  23
ATOM     23  O5  UNK     1      45.541  14.541 -11.623  1.00  0.00    -0.390 OA
ATOM     24  H8  UNK     1      45.321  15.257 -11.002  1.00  0.00     0.210 HD
ENDBRANCH  16  23
BRANCH  17  25
ATOM     25  O3  UNK     1      43.273  13.678 -10.024  1.00  0.00    -0.390 OA
ATOM     26  H6  UNK     1      43.747  14.523  -9.963  1.00  0.00     0.210 HD
ENDBRANCH  17  25
BRANCH  18  27
ATOM     27  O4  UNK     1      42.582  10.893 -10.689  1.00  0.00    -0.388 OA
ATOM     28  H7  UNK     1      42.037  11.086  -9.909  1.00  0.00     0.210 HD
ENDBRANCH  18  27
ENDBRANCH  12  13
ENDBRANCH   3  12
BRANCH   5  29
ATOM     29  O9  UNK     1      46.160   6.886 -11.355  1.00  0.00    -0.356 OA
ATOM     30  H12 UNK     1      46.068   7.492 -12.111  1.00  0.00     0.218 HD
ENDBRANCH   5  29
BRANCH   8  31
ATOM     31  O10 UNK     1      48.367   6.040  -9.991  1.00  0.00    -0.357 OA
ATOM     32  H13 UNK     1      48.645   5.506  -9.232  1.00  0.00     0.217 HD
ENDBRANCH   8  31
BRANCH  10  33
ATOM     33  C16 UNK     1      49.355  10.331  -5.173  1.00  0.00    -0.002 A 
ATOM     34  C17 UNK     1      49.748   9.796  -3.943  1.00  0.00     0.014 A 
ATOM     35  C19 UNK     1      50.069  10.643  -2.882  1.00  0.00     0.001 A 
ATOM     36  C21 UNK     1      50.000  12.026  -3.047  1.00  0.00     0.000 A 
ATOM     37  C20 UNK     1      49.608  12.563  -4.274  1.00  0.00     0.001 A 
ATOM     38  C18 UNK     1      49.287  11.716  -5.335  1.00  0.00     0.014 A 
ENDBRANCH  10  33
TORSDOF 10
ENDMDL
MODEL 16
REMARK VINA RESULT:      -3.7      2.566      5.093
REMARK  10 active torsions:
REMARK  status: ('A' for Active; 'I' for Inactive)
REMARK    1  A    between atoms: O2_2  and  C4_15 
REMARK    2  A    between atoms: O2_2  and  C7_18 
REMARK    3  A    between atoms: O3_3  and  C1_12 
REMARK    4  A    between atoms: O4_4  and  C2_13 
REMARK    5  A    between atoms: O5_5  and  C3_14 
REMARK    6  A    between atoms: O6_6  and  C6_17 
REMARK    7  A    between atoms: O9_9  and  C9_20 
REMARK    8  A    between atoms: O10_10  and  C12_23 
REMARK    9  A    between atoms: C5_16  and  C6_17 
REMARK   10  A    between atoms: C14_25  and  C16_27 
ROOT
ATOM      1  O8  UNK     1      44.873   9.680 -10.222  1.00  0.00    -0.309 OA
ATOM      2  O11 UNK     1      43.933  13.431 -11.505  1.00  0.00    -0.287 OA
ATOM      3  C7  UNK     1      48.245  11.019 -10.568  1.00  0.00     0.110 A 
ATOM      4  C8  UNK     1      47.186  10.148 -10.309  1.00  0.00     0.078 A 
ATOM      5  C9  UNK     1      47.991  12.318 -11.009  1.00  0.00     0.134 A 
ATOM      6  C10 UNK     1      45.872  10.580 -10.492  1.00  0.00     0.096 A 
ATOM      7  C11 UNK     1      45.621  11.879 -10.933  1.00  0.00     0.084 A 
ATOM      8  C12 UNK     1      46.679  12.753 -11.193  1.00  0.00     0.118 A 
ATOM      9  C13 UNK     1      44.227  12.307 -11.118  1.00  0.00     0.190 A 
ATOM     10  C14 UNK     1      43.557  10.084 -10.387  1.00  0.00     0.090 A 
ATOM     11  C15 UNK     1      43.188  11.303 -10.811  1.00  0.00     0.094 A 
ENDROOT
BRANCH   3  12
ATOM     12  O2  UNK     1      49.526  10.587 -10.386  1.00  0.00    -0.315 OA
BRANCH  12  13
ATOM     13  C4  UNK     1      49.704   9.457  -9.530  1.00  0.00     0.299 C 
ATOM     14  O1  UNK     1      48.937   8.359 -10.017  1.00  0.00    -0.340 OA
ATOM     15  C5  UNK     1      49.092   7.193  -9.215  1.00  0.00     0.253 C 
ATOM     16  C3  UNK     1      48.588   7.434  -7.797  1.00  0.00     0.189 C 
ATOM     17  C1  UNK     1      49.272   8.653  -7.178  1.00  0.00     0.183 C 
ATOM     18  C2  UNK     1      49.241   9.851  -8.127  1.00  0.00     0.205 C 
BRANCH  15  19
ATOM     19  C6  UNK     1      48.249   6.179  -9.917  1.00  0.00     0.172 C 
ATOM     20  O7  UNK     1      48.650   5.107 -10.345  1.00  0.00    -0.648 OA
BRANCH  19  21
ATOM     21  O6  UNK     1      46.968   6.610 -10.021  1.00  0.00    -0.774 OA
ATOM     22  H10 UNK     1      46.348   6.043  -9.516  1.00  0.00     0.167 HD
ENDBRANCH  19  21
ENDBRANCH  15  19
BRANCH  16  23
ATOM     23  O5  UNK     1      48.883   6.283  -7.006  1.00  0.00    -0.390 OA
ATOM     24  H8  UNK     1      48.606   6.466  -6.092  1.00  0.00     0.210 HD
ENDBRANCH  16  23
BRANCH  17  25
ATOM     25  O3  UNK     1      48.582   8.982  -5.972  1.00  0.00    -0.390 OA
ATOM     26  H6  UNK     1      48.955   8.438  -5.259  1.00  0.00     0.210 HD
ENDBRANCH  17  25
BRANCH  18  27
ATOM     27  O4  UNK     1      50.115  10.867  -7.636  1.00  0.00    -0.388 OA
ATOM     28  H7  UNK     1      49.564  11.564  -7.243  1.00  0.00     0.210 HD
ENDBRANCH  18  27
ENDBRANCH  12  13
ENDBRANCH   3  12
BRANCH   5  29
ATOM     29  O9  UNK     1      49.033  13.164 -11.261  1.00  0.00    -0.356 OA
ATOM     30  H12 UNK     1      48.706  13.902 -11.805  1.00  0.00     0.218 HD
ENDBRANCH   5  29
BRANCH   8  31
ATOM     31  O10 UNK     1      46.471  14.030 -11.625  1.00  0.00    -0.357 OA
ATOM     32  H13 UNK     1      45.740  14.063 -12.260  1.00  0.00     0.217 HD
ENDBRANCH   8  31
BRANCH  10  33
ATOM     33  C16 UNK     1      42.564   9.036 -10.074  1.00  0.00    -0.002 A 
ATOM     34  C17 UNK     1      41.242   9.387  -9.785  1.00  0.00     0.014 A 
ATOM     35  C19 UNK     1      40.304   8.397  -9.490  1.00  0.00     0.001 A 
ATOM     36  C21 UNK     1      40.684   7.055  -9.483  1.00  0.00     0.000 A 
ATOM     37  C20 UNK     1      42.003   6.702  -9.770  1.00  0.00     0.001 A 
ATOM     38  C18 UNK     1      42.941   7.692 -10.066  1.00  0.00     0.014 A 
ENDBRANCH  10  33
TORSDOF 10
ENDMDL
