@<TRIPOS>MOLECULE
naringetin.pdb
32 34 1 0 0
SMALL
NO_CHARGES


@<TRIPOS>ATOM
      1 O1          0.0450   -0.7890   -0.1530 O.3       1 UNK    0.0000
      2 O2          1.7540    2.9390   -0.0660 O.2       1 UNK    0.0000
      3 O3          4.1140    1.8510    0.1140 O.3       1 UNK    0.0000
      4 O4          4.2930   -2.8910   -0.0090 O.3       1 UNK    0.0000
      5 O5         -6.2200   -0.5950   -0.2340 O.3       1 UNK    0.0000
      6 C1         -0.6670    0.3320    0.3930 C.3       1 UNK    0.0000
      7 C2         -0.2460    1.6330   -0.2870 C.3       1 UNK    0.0000
      8 C3         -2.1520    0.0840    0.2250 C.ar      1 UNK    0.0000
      9 C4          2.0470    0.5970   -0.0250 C.ar      1 UNK    0.0000
     10 C5          1.2360    1.8300   -0.0980 C.2       1 UNK    0.0000
     11 C6          1.4060   -0.6440   -0.0790 C.ar      1 UNK    0.0000
     12 C7          3.4400    0.6690    0.0540 C.ar      1 UNK    0.0000
     13 C8          2.1630   -1.8160   -0.0890 C.ar      1 UNK    0.0000
     14 C9         -2.9680   -0.0410    1.3490 C.ar      1 UNK    0.0000
     15 C10        -2.7010   -0.0180   -1.0520 C.ar      1 UNK    0.0000
     16 C11         4.1910   -0.5070    0.0650 C.ar      1 UNK    0.0000
     17 C12         3.5550   -1.7470   -0.0120 C.ar      1 UNK    0.0000
     18 C13        -4.3360   -0.2690    1.1940 C.ar      1 UNK    0.0000
     19 C14        -4.0680   -0.2470   -1.2070 C.ar      1 UNK    0.0000
     20 C15        -4.8860   -0.3720   -0.0830 C.ar      1 UNK    0.0000
     21 H1         -0.4340    0.3840    1.4670 H         1 UNK    0.0000
     22 H2         -0.7760    2.4840    0.1560 H         1 UNK    0.0000
     23 H3         -0.4290    1.6250   -1.3680 H         1 UNK    0.0000
     24 H4          1.6710   -2.7840   -0.1460 H         1 UNK    0.0000
     25 H5         -2.5550    0.0370    2.3510 H         1 UNK    0.0000
     26 H6         -2.0790    0.0650   -1.9390 H         1 UNK    0.0000
     27 H7          5.2760   -0.4620    0.1250 H         1 UNK    0.0000
     28 H8         -4.9670   -0.3660    2.0730 H         1 UNK    0.0000
     29 H9         -4.4840   -0.3280   -2.2070 H         1 UNK    0.0000
     30 H10         5.0690    1.6790    0.1620 H         1 UNK    0.0000
     31 H11         5.2360   -2.6580    0.0490 H         1 UNK    0.0000
     32 H12        -6.4270   -0.6380   -1.1830 H         1 UNK    0.0000
@<TRIPOS>BOND
     1    1    6 1
     2    1   11 1
     3    2   10 2
     4    3   12 1
     5    3   30 1
     6    4   17 1
     7    4   31 1
     8    5   20 1
     9    5   32 1
    10    6    7 1
    11    6    8 1
    12    6   21 1
    13    7   10 1
    14    7   22 1
    15    7   23 1
    16    8   14 ar
    17    8   15 ar
    18    9   10 1
    19    9   11 ar
    20    9   12 ar
    21   11   13 ar
    22   12   16 ar
    23   13   17 ar
    24   13   24 1
    25   14   18 ar
    26   14   25 1
    27   15   19 ar
    28   15   26 1
    29   16   17 ar
    30   16   27 1
    31   18   20 ar
    32   18   28 1
    33   19   20 ar
    34   19   29 1
@<TRIPOS>SUBSTRUCTURE
     1 UNK     1 RESIDUE           4 A     UNK     0 ROOT
