REMARK  4 active torsions:
REMARK  status: ('A' for Active; 'I' for Inactive)
REMARK    1  A    between atoms: O3_3  and  C7_12 
REMARK    2  A    between atoms: O4_4  and  C12_17 
REMARK    3  A    between atoms: O5_5  and  C15_20 
REMARK    4  A    between atoms: C1_6  and  C3_8 
ROOT
ATOM      1  O1  UNK     1       0.045  -0.789  -0.153  1.00  0.00    -0.340 OA
ATOM      2  O2  UNK     1       1.754   2.939  -0.066  1.00  0.00    -0.292 OA
ATOM      3  C1  UNK     1      -0.667   0.332   0.393  1.00  0.00     0.169 C 
ATOM      4  C2  UNK     1      -0.246   1.633  -0.287  1.00  0.00     0.121 C 
ATOM      5  C4  UNK     1       2.047   0.597  -0.025  1.00  0.00     0.076 A 
ATOM      6  C5  UNK     1       1.236   1.830  -0.098  1.00  0.00     0.167 C 
ATOM      7  C6  UNK     1       1.406  -0.644  -0.079  1.00  0.00     0.089 A 
ATOM      8  C7  UNK     1       3.440   0.669   0.054  1.00  0.00     0.085 A 
ATOM      9  C8  UNK     1       2.163  -1.816  -0.089  1.00  0.00     0.074 A 
ATOM     10  C11 UNK     1       4.191  -0.507   0.065  1.00  0.00     0.074 A 
ATOM     11  C12 UNK     1       3.555  -1.747  -0.012  1.00  0.00     0.071 A 
ENDROOT
BRANCH   3  12
ATOM     12  C3  UNK     1      -2.152   0.084   0.225  1.00  0.00    -0.028 A 
ATOM     13  C9  UNK     1      -2.968  -0.041   1.349  1.00  0.00     0.012 A 
ATOM     14  C13 UNK     1      -4.336  -0.269   1.194  1.00  0.00     0.037 A 
ATOM     15  C15 UNK     1      -4.886  -0.372  -0.083  1.00  0.00     0.065 A 
ATOM     16  C14 UNK     1      -4.068  -0.247  -1.207  1.00  0.00     0.037 A 
ATOM     17  C10 UNK     1      -2.701  -0.018  -1.052  1.00  0.00     0.012 A 
BRANCH  15  18
ATOM     18  O5  UNK     1      -6.220  -0.595  -0.234  1.00  0.00    -0.361 OA
ATOM     19  H12 UNK     1      -6.427  -0.638  -1.183  1.00  0.00     0.217 HD
ENDBRANCH  15  18
ENDBRANCH   3  12
BRANCH   8  20
ATOM     20  O3  UNK     1       4.114   1.851   0.114  1.00  0.00    -0.360 OA
ATOM     21  H10 UNK     1       5.069   1.679   0.162  1.00  0.00     0.217 HD
ENDBRANCH   8  20
BRANCH  11  22
ATOM     22  O4  UNK     1       4.293  -2.891  -0.009  1.00  0.00    -0.361 OA
ATOM     23  H11 UNK     1       5.236  -2.658   0.049  1.00  0.00     0.217 HD
ENDBRANCH  11  22
TORSDOF 4
