MODEL 1
REMARK VINA RESULT:      -6.0      0.000      0.000
REMARK  4 active torsions:
REMARK  status: ('A' for Active; 'I' for Inactive)
REMARK    1  A    between atoms: O3_3  and  C7_12 
REMARK    2  A    between atoms: O4_4  and  C12_17 
REMARK    3  A    between atoms: O5_5  and  C15_20 
REMARK    4  A    between atoms: C1_6  and  C3_8 
ROOT
ATOM      1  O1  UNK     1      44.077   1.677   7.608  1.00  0.00    -0.340 OA
ATOM      2  O2  UNK     1      45.511   0.899  11.371  1.00  0.00    -0.292 OA
ATOM      3  C1  UNK     1      43.378   0.784   8.490  1.00  0.00     0.169 C 
ATOM      4  C2  UNK     1      43.598   1.173   9.950  1.00  0.00     0.121 C 
ATOM      5  C4  UNK     1      45.972   1.473   9.128  1.00  0.00     0.076 A 
ATOM      6  C5  UNK     1      45.074   1.135  10.252  1.00  0.00     0.167 C 
ATOM      7  C6  UNK     1      45.419   1.747   7.874  1.00  0.00     0.089 A 
ATOM      8  C7  UNK     1      47.352   1.561   9.326  1.00  0.00     0.085 A 
ATOM      9  C8  UNK     1      46.247   2.142   6.823  1.00  0.00     0.074 A 
ATOM     10  C11 UNK     1      48.177   1.936   8.265  1.00  0.00     0.074 A 
ATOM     11  C12 UNK     1      47.626   2.232   7.018  1.00  0.00     0.071 A 
ENDROOT
BRANCH   3  12
ATOM     12  C3  UNK     1      41.906   0.814   8.133  1.00  0.00    -0.028 A 
ATOM     13  C9  UNK     1      41.336   1.982   7.628  1.00  0.00     0.012 A 
ATOM     14  C13 UNK     1      39.980   2.009   7.299  1.00  0.00     0.037 A 
ATOM     15  C15 UNK     1      39.196   0.869   7.476  1.00  0.00     0.065 A 
ATOM     16  C14 UNK     1      39.768  -0.299   7.981  1.00  0.00     0.037 A 
ATOM     17  C10 UNK     1      41.124  -0.326   8.309  1.00  0.00     0.012 A 
BRANCH  15  18
ATOM     18  O5  UNK     1      37.874   0.896   7.156  1.00  0.00    -0.361 OA
ATOM     19  H12 UNK     1      37.354   0.990   7.972  1.00  0.00     0.217 HD
ENDBRANCH  15  18
ENDBRANCH   3  12
BRANCH   8  20
ATOM     20  O3  UNK     1      47.942   1.300  10.525  1.00  0.00    -0.360 OA
ATOM     21  H10 UNK     1      48.252   0.379  10.543  1.00  0.00     0.217 HD
ENDBRANCH   8  20
BRANCH  11  22
ATOM     22  O4  UNK     1      48.435   2.606   5.988  1.00  0.00    -0.361 OA
ATOM     23  H11 UNK     1      47.951   3.227   5.416  1.00  0.00     0.217 HD
ENDBRANCH  11  22
TORSDOF 4
ENDMDL
MODEL 2
REMARK VINA RESULT:      -6.0      0.039      1.081
REMARK  4 active torsions:
REMARK  status: ('A' for Active; 'I' for Inactive)
REMARK    1  A    between atoms: O3_3  and  C7_12 
REMARK    2  A    between atoms: O4_4  and  C12_17 
REMARK    3  A    between atoms: O5_5  and  C15_20 
REMARK    4  A    between atoms: C1_6  and  C3_8 
ROOT
ATOM      1  O1  UNK     1      44.109   1.674   7.608  1.00  0.00    -0.340 OA
ATOM      2  O2  UNK     1      45.553   0.864  11.361  1.00  0.00    -0.292 OA
ATOM      3  C1  UNK     1      43.411   0.777   8.485  1.00  0.00     0.169 C 
ATOM      4  C2  UNK     1      43.637   1.153   9.948  1.00  0.00     0.121 C 
ATOM      5  C4  UNK     1      46.009   1.453   9.121  1.00  0.00     0.076 A 
ATOM      6  C5  UNK     1      45.113   1.109  10.245  1.00  0.00     0.167 C 
ATOM      7  C6  UNK     1      45.453   1.738   7.870  1.00  0.00     0.089 A 
ATOM      8  C7  UNK     1      47.390   1.535   9.315  1.00  0.00     0.085 A 
ATOM      9  C8  UNK     1      46.279   2.139   6.820  1.00  0.00     0.074 A 
ATOM     10  C11 UNK     1      48.213   1.917   8.255  1.00  0.00     0.074 A 
ATOM     11  C12 UNK     1      47.659   2.224   7.011  1.00  0.00     0.071 A 
ENDROOT
BRANCH   3  12
ATOM     12  C3  UNK     1      41.938   0.813   8.133  1.00  0.00    -0.028 A 
ATOM     13  C9  UNK     1      41.151  -0.324   8.315  1.00  0.00     0.012 A 
ATOM     14  C13 UNK     1      39.794  -0.290   7.992  1.00  0.00     0.037 A 
ATOM     15  C15 UNK     1      39.226   0.879   7.487  1.00  0.00     0.065 A 
ATOM     16  C14 UNK     1      40.015   2.016   7.305  1.00  0.00     0.037 A 
ATOM     17  C10 UNK     1      41.371   1.982   7.629  1.00  0.00     0.012 A 
BRANCH  15  18
ATOM     18  O5  UNK     1      37.903   0.911   7.170  1.00  0.00    -0.361 OA
ATOM     19  H12 UNK     1      37.751   0.351   6.390  1.00  0.00     0.217 HD
ENDBRANCH  15  18
ENDBRANCH   3  12
BRANCH   8  20
ATOM     20  O3  UNK     1      47.983   1.264  10.511  1.00  0.00    -0.360 OA
ATOM     21  H10 UNK     1      47.736   1.945  11.158  1.00  0.00     0.217 HD
ENDBRANCH   8  20
BRANCH  11  22
ATOM     22  O4  UNK     1      48.465   2.603   5.982  1.00  0.00    -0.361 OA
ATOM     23  H11 UNK     1      48.757   3.520   6.131  1.00  0.00     0.217 HD
ENDBRANCH  11  22
TORSDOF 4
ENDMDL
MODEL 3
REMARK VINA RESULT:      -6.0      2.058      6.967
REMARK  4 active torsions:
REMARK  status: ('A' for Active; 'I' for Inactive)
REMARK    1  A    between atoms: O3_3  and  C7_12 
REMARK    2  A    between atoms: O4_4  and  C12_17 
REMARK    3  A    between atoms: O5_5  and  C15_20 
REMARK    4  A    between atoms: C1_6  and  C3_8 
ROOT
ATOM      1  O1  UNK     1      43.877   0.112   9.087  1.00  0.00    -0.340 OA
ATOM      2  O2  UNK     1      40.815   2.178   7.302  1.00  0.00    -0.292 OA
ATOM      3  C1  UNK     1      44.123   0.949   7.947  1.00  0.00     0.169 C 
ATOM      4  C2  UNK     1      43.138   2.115   7.899  1.00  0.00     0.121 C 
ATOM      5  C4  UNK     1      41.510   0.284   8.527  1.00  0.00     0.076 A 
ATOM      6  C5  UNK     1      41.734   1.571   7.837  1.00  0.00     0.167 C 
ATOM      7  C6  UNK     1      42.592  -0.362   9.133  1.00  0.00     0.089 A 
ATOM      8  C7  UNK     1      40.226  -0.261   8.611  1.00  0.00     0.085 A 
ATOM      9  C8  UNK     1      42.382  -1.538   9.854  1.00  0.00     0.074 A 
ATOM     10  C11 UNK     1      40.026  -1.449   9.316  1.00  0.00     0.074 A 
ATOM     11  C12 UNK     1      41.101  -2.083   9.941  1.00  0.00     0.071 A 
ENDROOT
BRANCH   3  12
ATOM     12  C3  UNK     1      45.553   1.446   8.018  1.00  0.00    -0.028 A 
ATOM     13  C9  UNK     1      46.382   1.034   9.061  1.00  0.00     0.012 A 
ATOM     14  C13 UNK     1      47.699   1.491   9.125  1.00  0.00     0.037 A 
ATOM     15  C15 UNK     1      48.185   2.359   8.148  1.00  0.00     0.065 A 
ATOM     16  C14 UNK     1      47.354   2.770   7.105  1.00  0.00     0.037 A 
ATOM     17  C10 UNK     1      46.038   2.313   7.040  1.00  0.00     0.012 A 
BRANCH  15  18
ATOM     18  O5  UNK     1      49.469   2.805   8.212  1.00  0.00    -0.361 OA
ATOM     19  H12 UNK     1      50.027   2.107   8.597  1.00  0.00     0.217 HD
ENDBRANCH  15  18
ENDBRANCH   3  12
BRANCH   8  20
ATOM     20  O3  UNK     1      39.139   0.324   8.035  1.00  0.00    -0.360 OA
ATOM     21  H10 UNK     1      39.420   0.845   7.265  1.00  0.00     0.217 HD
ENDBRANCH   8  20
BRANCH  11  22
ATOM     22  O4  UNK     1      40.899  -3.237  10.634  1.00  0.00    -0.361 OA
ATOM     23  H11 UNK     1      40.721  -3.019  11.566  1.00  0.00     0.217 HD
ENDBRANCH  11  22
TORSDOF 4
ENDMDL
MODEL 4
REMARK VINA RESULT:      -5.9      1.779      7.313
REMARK  4 active torsions:
REMARK  status: ('A' for Active; 'I' for Inactive)
REMARK    1  A    between atoms: O3_3  and  C7_12 
REMARK    2  A    between atoms: O4_4  and  C12_17 
REMARK    3  A    between atoms: O5_5  and  C15_20 
REMARK    4  A    between atoms: C1_6  and  C3_8 
ROOT
ATOM      1  O1  UNK     1      42.118  -0.189   8.642  1.00  0.00    -0.340 OA
ATOM      2  O2  UNK     1      39.348   2.386   7.055  1.00  0.00    -0.292 OA
ATOM      3  C1  UNK     1      42.510   0.819   7.697  1.00  0.00     0.169 C 
ATOM      4  C2  UNK     1      41.604   2.044   7.795  1.00  0.00     0.121 C 
ATOM      5  C4  UNK     1      39.821   0.256   7.955  1.00  0.00     0.076 A 
ATOM      6  C5  UNK     1      40.180   1.626   7.533  1.00  0.00     0.167 C 
ATOM      7  C6  UNK     1      40.808  -0.567   8.507  1.00  0.00     0.089 A 
ATOM      8  C7  UNK     1      38.505  -0.198   7.844  1.00  0.00     0.085 A 
ATOM      9  C8  UNK     1      40.468  -1.834   8.981  1.00  0.00     0.074 A 
ATOM     10  C11 UNK     1      38.175  -1.474   8.301  1.00  0.00     0.074 A 
ATOM     11  C12 UNK     1      39.153  -2.289   8.874  1.00  0.00     0.071 A 
ENDROOT
BRANCH   3  12
ATOM     12  C3  UNK     1      43.956   1.187   7.961  1.00  0.00    -0.028 A 
ATOM     13  C9  UNK     1      44.601   0.700   9.097  1.00  0.00     0.012 A 
ATOM     14  C13 UNK     1      45.933   1.038   9.340  1.00  0.00     0.037 A 
ATOM     15  C15 UNK     1      46.617   1.862   8.447  1.00  0.00     0.065 A 
ATOM     16  C14 UNK     1      45.970   2.349   7.310  1.00  0.00     0.037 A 
ATOM     17  C10 UNK     1      44.639   2.010   7.067  1.00  0.00     0.012 A 
BRANCH  15  18
ATOM     18  O5  UNK     1      47.916   2.193   8.684  1.00  0.00    -0.361 OA
ATOM     19  H12 UNK     1      47.945   3.056   9.131  1.00  0.00     0.217 HD
ENDBRANCH  15  18
ENDBRANCH   3  12
BRANCH   8  20
ATOM     20  O3  UNK     1      37.507   0.560   7.311  1.00  0.00    -0.360 OA
ATOM     21  H10 UNK     1      37.816   1.475   7.203  1.00  0.00     0.217 HD
ENDBRANCH   8  20
BRANCH  11  22
ATOM     22  O4  UNK     1      38.825  -3.531   9.325  1.00  0.00    -0.361 OA
ATOM     23  H11 UNK     1      38.815  -3.521  10.298  1.00  0.00     0.217 HD
ENDBRANCH  11  22
TORSDOF 4
ENDMDL
MODEL 5
REMARK VINA RESULT:      -5.9      3.310      6.731
REMARK  4 active torsions:
REMARK  status: ('A' for Active; 'I' for Inactive)
REMARK    1  A    between atoms: O3_3  and  C7_12 
REMARK    2  A    between atoms: O4_4  and  C12_17 
REMARK    3  A    between atoms: O5_5  and  C15_20 
REMARK    4  A    between atoms: C1_6  and  C3_8 
ROOT
ATOM      1  O1  UNK     1      42.054   1.141   9.459  1.00  0.00    -0.340 OA
ATOM      2  O2  UNK     1      39.042   1.278   6.677  1.00  0.00    -0.292 OA
ATOM      3  C1  UNK     1      42.018   2.179   8.467  1.00  0.00     0.169 C 
ATOM      4  C2  UNK     1      40.582   2.496   8.057  1.00  0.00     0.121 C 
ATOM      5  C4  UNK     1      40.404  -0.028   8.097  1.00  0.00     0.076 A 
ATOM      6  C5  UNK     1      39.939   1.247   7.511  1.00  0.00     0.167 C 
ATOM      7  C6  UNK     1      41.421  -0.006   9.055  1.00  0.00     0.089 A 
ATOM      8  C7  UNK     1      39.806  -1.236   7.730  1.00  0.00     0.085 A 
ATOM      9  C8  UNK     1      41.818  -1.192   9.673  1.00  0.00     0.074 A 
ATOM     10  C11 UNK     1      40.221  -2.422   8.336  1.00  0.00     0.074 A 
ATOM     11  C12 UNK     1      41.221  -2.400   9.309  1.00  0.00     0.071 A 
ENDROOT
BRANCH   3  12
ATOM     12  C3  UNK     1      42.708   3.404   9.031  1.00  0.00    -0.028 A 
ATOM     13  C9  UNK     1      42.021   4.251   9.900  1.00  0.00     0.012 A 
ATOM     14  C13 UNK     1      42.657   5.379  10.419  1.00  0.00     0.037 A 
ATOM     15  C15 UNK     1      43.977   5.660  10.069  1.00  0.00     0.065 A 
ATOM     16  C14 UNK     1      44.663   4.812   9.199  1.00  0.00     0.037 A 
ATOM     17  C10 UNK     1      44.028   3.683   8.680  1.00  0.00     0.012 A 
BRANCH  15  18
ATOM     18  O5  UNK     1      44.597   6.761  10.575  1.00  0.00    -0.361 OA
ATOM     19  H12 UNK     1      44.290   6.904  11.486  1.00  0.00     0.217 HD
ENDBRANCH  15  18
ENDBRANCH   3  12
BRANCH   8  20
ATOM     20  O3  UNK     1      38.815  -1.314   6.799  1.00  0.00    -0.360 OA
ATOM     21  H10 UNK     1      39.134  -1.806   6.024  1.00  0.00     0.217 HD
ENDBRANCH   8  20
BRANCH  11  22
ATOM     22  O4  UNK     1      41.617  -3.560   9.903  1.00  0.00    -0.361 OA
ATOM     23  H11 UNK     1      41.535  -4.287   9.262  1.00  0.00     0.217 HD
ENDBRANCH  11  22
TORSDOF 4
ENDMDL
MODEL 6
REMARK VINA RESULT:      -5.9      1.832      6.763
REMARK  4 active torsions:
REMARK  status: ('A' for Active; 'I' for Inactive)
REMARK    1  A    between atoms: O3_3  and  C7_12 
REMARK    2  A    between atoms: O4_4  and  C12_17 
REMARK    3  A    between atoms: O5_5  and  C15_20 
REMARK    4  A    between atoms: C1_6  and  C3_8 
ROOT
ATOM      1  O1  UNK     1      42.562   0.947   7.970  1.00  0.00    -0.340 OA
ATOM      2  O2  UNK     1      40.999  -1.733  10.654  1.00  0.00    -0.292 OA
ATOM      3  C1  UNK     1      43.237   0.667   9.206  1.00  0.00     0.169 C 
ATOM      4  C2  UNK     1      42.959  -0.760   9.672  1.00  0.00     0.121 C 
ATOM      5  C4  UNK     1      40.614  -0.148   8.947  1.00  0.00     0.076 A 
ATOM      6  C5  UNK     1      41.474  -0.939   9.852  1.00  0.00     0.167 C 
ATOM      7  C6  UNK     1      41.209   0.735   8.041  1.00  0.00     0.089 A 
ATOM      8  C7  UNK     1      39.227  -0.311   8.966  1.00  0.00     0.085 A 
ATOM      9  C8  UNK     1      40.416   1.431   7.129  1.00  0.00     0.074 A 
ATOM     10  C11 UNK     1      38.437   0.404   8.065  1.00  0.00     0.074 A 
ATOM     11  C12 UNK     1      39.030   1.269   7.144  1.00  0.00     0.071 A 
ENDROOT
BRANCH   3  12
ATOM     12  C3  UNK     1      44.721   0.897   9.004  1.00  0.00    -0.028 A 
ATOM     13  C9  UNK     1      45.170   1.592   7.881  1.00  0.00     0.012 A 
ATOM     14  C13 UNK     1      46.537   1.803   7.695  1.00  0.00     0.037 A 
ATOM     15  C15 UNK     1      47.452   1.320   8.630  1.00  0.00     0.065 A 
ATOM     16  C14 UNK     1      47.000   0.624   9.753  1.00  0.00     0.037 A 
ATOM     17  C10 UNK     1      45.634   0.414   9.939  1.00  0.00     0.012 A 
BRANCH  15  18
ATOM     18  O5  UNK     1      48.785   1.526   8.448  1.00  0.00    -0.361 OA
ATOM     19  H12 UNK     1      49.092   2.187   9.091  1.00  0.00     0.217 HD
ENDBRANCH  15  18
ENDBRANCH   3  12
BRANCH   8  20
ATOM     20  O3  UNK     1      38.596  -1.153   9.831  1.00  0.00    -0.360 OA
ATOM     21  H10 UNK     1      37.658  -0.908   9.898  1.00  0.00     0.217 HD
ENDBRANCH   8  20
BRANCH  11  22
ATOM     22  O4  UNK     1      38.255   1.958   6.262  1.00  0.00    -0.361 OA
ATOM     23  H11 UNK     1      38.464   2.905   6.331  1.00  0.00     0.217 HD
ENDBRANCH  11  22
TORSDOF 4
ENDMDL
MODEL 7
REMARK VINA RESULT:      -5.8      2.502      7.029
REMARK  4 active torsions:
REMARK  status: ('A' for Active; 'I' for Inactive)
REMARK    1  A    between atoms: O3_3  and  C7_12 
REMARK    2  A    between atoms: O4_4  and  C12_17 
REMARK    3  A    between atoms: O5_5  and  C15_20 
REMARK    4  A    between atoms: C1_6  and  C3_8 
ROOT
ATOM      1  O1  UNK     1      41.388  -0.092   8.042  1.00  0.00    -0.340 OA
ATOM      2  O2  UNK     1      41.606  -2.601  11.280  1.00  0.00    -0.292 OA
ATOM      3  C1  UNK     1      42.365   0.123   9.072  1.00  0.00     0.169 C 
ATOM      4  C2  UNK     1      42.773  -1.196   9.724  1.00  0.00     0.121 C 
ATOM      5  C4  UNK     1      40.279  -1.604   9.601  1.00  0.00     0.076 A 
ATOM      6  C5  UNK     1      41.551  -1.854  10.311  1.00  0.00     0.167 C 
ATOM      7  C6  UNK     1      40.275  -0.753   8.492  1.00  0.00     0.089 A 
ATOM      8  C7  UNK     1      39.104  -2.242  10.006  1.00  0.00     0.085 A 
ATOM      9  C8  UNK     1      39.098  -0.567   7.765  1.00  0.00     0.074 A 
ATOM     10  C11 UNK     1      37.926  -2.036   9.287  1.00  0.00     0.074 A 
ATOM     11  C12 UNK     1      37.923  -1.205   8.166  1.00  0.00     0.071 A 
ENDROOT
BRANCH   3  12
ATOM     12  C3  UNK     1      43.561   0.822   8.459  1.00  0.00    -0.028 A 
ATOM     13  C9  UNK     1      44.802   0.760   9.092  1.00  0.00     0.012 A 
ATOM     14  C13 UNK     1      45.904   1.404   8.527  1.00  0.00     0.037 A 
ATOM     15  C15 UNK     1      45.764   2.108   7.332  1.00  0.00     0.065 A 
ATOM     16  C14 UNK     1      44.521   2.170   6.700  1.00  0.00     0.037 A 
ATOM     17  C10 UNK     1      43.420   1.525   7.264  1.00  0.00     0.012 A 
BRANCH  15  18
ATOM     18  O5  UNK     1      46.838   2.736   6.781  1.00  0.00    -0.361 OA
ATOM     19  H12 UNK     1      47.224   2.161   6.099  1.00  0.00     0.217 HD
ENDBRANCH  15  18
ENDBRANCH   3  12
BRANCH   8  20
ATOM     20  O3  UNK     1      39.053  -3.077  11.081  1.00  0.00    -0.360 OA
ATOM     21  H10 UNK     1      39.864  -2.980  11.607  1.00  0.00     0.217 HD
ENDBRANCH   8  20
BRANCH  11  22
ATOM     22  O4  UNK     1      36.773  -1.014   7.464  1.00  0.00    -0.361 OA
ATOM     23  H11 UNK     1      36.016  -1.262   8.024  1.00  0.00     0.217 HD
ENDBRANCH  11  22
TORSDOF 4
ENDMDL
MODEL 8
REMARK VINA RESULT:      -5.7      1.793      1.835
REMARK  4 active torsions:
REMARK  status: ('A' for Active; 'I' for Inactive)
REMARK    1  A    between atoms: O3_3  and  C7_12 
REMARK    2  A    between atoms: O4_4  and  C12_17 
REMARK    3  A    between atoms: O5_5  and  C15_20 
REMARK    4  A    between atoms: C1_6  and  C3_8 
ROOT
ATOM      1  O1  UNK     1      43.681   2.025   7.417  1.00  0.00    -0.340 OA
ATOM      2  O2  UNK     1      44.272   4.704  10.466  1.00  0.00    -0.292 OA
ATOM      3  C1  UNK     1      42.845   2.005   8.584  1.00  0.00     0.169 C 
ATOM      4  C2  UNK     1      42.715   3.401   9.190  1.00  0.00     0.121 C 
ATOM      5  C4  UNK     1      45.196   3.444   8.696  1.00  0.00     0.076 A 
ATOM      6  C5  UNK     1      44.086   3.909   9.554  1.00  0.00     0.167 C 
ATOM      7  C6  UNK     1      44.926   2.545   7.661  1.00  0.00     0.089 A 
ATOM      8  C7  UNK     1      46.491   3.930   8.889  1.00  0.00     0.085 A 
ATOM      9  C8  UNK     1      45.948   2.157   6.794  1.00  0.00     0.074 A 
ATOM     10  C11 UNK     1      47.514   3.522   8.033  1.00  0.00     0.074 A 
ATOM     11  C12 UNK     1      47.243   2.642   6.984  1.00  0.00     0.071 A 
ENDROOT
BRANCH   3  12
ATOM     12  C3  UNK     1      41.490   1.451   8.193  1.00  0.00    -0.028 A 
ATOM     13  C9  UNK     1      40.559   2.274   7.558  1.00  0.00     0.012 A 
ATOM     14  C13 UNK     1      39.311   1.764   7.198  1.00  0.00     0.037 A 
ATOM     15  C15 UNK     1      38.996   0.433   7.472  1.00  0.00     0.065 A 
ATOM     16  C14 UNK     1      39.928  -0.388   8.107  1.00  0.00     0.037 A 
ATOM     17  C10 UNK     1      41.176   0.121   8.466  1.00  0.00     0.012 A 
BRANCH  15  18
ATOM     18  O5  UNK     1      37.778  -0.064   7.121  1.00  0.00    -0.361 OA
ATOM     19  H12 UNK     1      37.904  -0.773   6.468  1.00  0.00     0.217 HD
ENDBRANCH  15  18
ENDBRANCH   3  12
BRANCH   8  20
ATOM     20  O3  UNK     1      46.810   4.803   9.885  1.00  0.00    -0.360 OA
ATOM     21  H10 UNK     1      46.482   4.462  10.734  1.00  0.00     0.217 HD
ENDBRANCH   8  20
BRANCH  11  22
ATOM     22  O4  UNK     1      48.243   2.254   6.146  1.00  0.00    -0.361 OA
ATOM     23  H11 UNK     1      48.414   1.305   6.277  1.00  0.00     0.217 HD
ENDBRANCH  11  22
TORSDOF 4
ENDMDL
MODEL 9
REMARK VINA RESULT:      -5.7      2.338      7.324
REMARK  4 active torsions:
REMARK  status: ('A' for Active; 'I' for Inactive)
REMARK    1  A    between atoms: O3_3  and  C7_12 
REMARK    2  A    between atoms: O4_4  and  C12_17 
REMARK    3  A    between atoms: O5_5  and  C15_20 
REMARK    4  A    between atoms: C1_6  and  C3_8 
ROOT
ATOM      1  O1  UNK     1      46.197   1.904   9.718  1.00  0.00    -0.340 OA
ATOM      2  O2  UNK     1      43.942   0.956   6.425  1.00  0.00    -0.292 OA
ATOM      3  C1  UNK     1      46.824   1.556   8.475  1.00  0.00     0.169 C 
ATOM      4  C2  UNK     1      45.947   1.950   7.289  1.00  0.00     0.121 C 
ATOM      5  C4  UNK     1      44.141   0.990   8.777  1.00  0.00     0.076 A 
ATOM      6  C5  UNK     1      44.619   1.247   7.403  1.00  0.00     0.167 C 
ATOM      7  C6  UNK     1      44.949   1.354   9.859  1.00  0.00     0.089 A 
ATOM      8  C7  UNK     1      42.880   0.429   8.995  1.00  0.00     0.085 A 
ATOM      9  C8  UNK     1      44.479   1.188  11.162  1.00  0.00     0.074 A 
ATOM     10  C11 UNK     1      42.424   0.247  10.301  1.00  0.00     0.074 A 
ATOM     11  C12 UNK     1      43.219   0.630  11.383  1.00  0.00     0.071 A 
ENDROOT
BRANCH   3  12
ATOM     12  C3  UNK     1      48.172   2.244   8.410  1.00  0.00    -0.028 A 
ATOM     13  C9  UNK     1      49.098   2.060   9.436  1.00  0.00     0.012 A 
ATOM     14  C13 UNK     1      50.340   2.694   9.376  1.00  0.00     0.037 A 
ATOM     15  C15 UNK     1      50.654   3.511   8.291  1.00  0.00     0.065 A 
ATOM     16  C14 UNK     1      49.727   3.695   7.264  1.00  0.00     0.037 A 
ATOM     17  C10 UNK     1      48.486   3.060   7.324  1.00  0.00     0.012 A 
BRANCH  15  18
ATOM     18  O5  UNK     1      51.865   4.129   8.232  1.00  0.00    -0.361 OA
ATOM     19  H12 UNK     1      51.866   4.879   8.852  1.00  0.00     0.217 HD
ENDBRANCH  15  18
ENDBRANCH   3  12
BRANCH   8  20
ATOM     20  O3  UNK     1      42.056   0.053   7.979  1.00  0.00    -0.360 OA
ATOM     21  H10 UNK     1      42.178  -0.893   7.795  1.00  0.00     0.217 HD
ENDBRANCH   8  20
BRANCH  11  22
ATOM     22  O4  UNK     1      42.766   0.458  12.655  1.00  0.00    -0.361 OA
ATOM     23  H11 UNK     1      42.056  -0.208  12.649  1.00  0.00     0.217 HD
ENDBRANCH  11  22
TORSDOF 4
ENDMDL
MODEL 10
REMARK VINA RESULT:      -5.7      1.776      2.093
REMARK  4 active torsions:
REMARK  status: ('A' for Active; 'I' for Inactive)
REMARK    1  A    between atoms: O3_3  and  C7_12 
REMARK    2  A    between atoms: O4_4  and  C12_17 
REMARK    3  A    between atoms: O5_5  and  C15_20 
REMARK    4  A    between atoms: C1_6  and  C3_8 
ROOT
ATOM      1  O1  UNK     1      43.710   2.005   7.410  1.00  0.00    -0.340 OA
ATOM      2  O2  UNK     1      44.296   4.675  10.469  1.00  0.00    -0.292 OA
ATOM      3  C1  UNK     1      42.873   1.979   8.577  1.00  0.00     0.169 C 
ATOM      4  C2  UNK     1      42.741   3.373   9.187  1.00  0.00     0.121 C 
ATOM      5  C4  UNK     1      45.222   3.422   8.696  1.00  0.00     0.076 A 
ATOM      6  C5  UNK     1      44.111   3.882   9.554  1.00  0.00     0.167 C 
ATOM      7  C6  UNK     1      44.954   2.525   7.657  1.00  0.00     0.089 A 
ATOM      8  C7  UNK     1      46.517   3.909   8.891  1.00  0.00     0.085 A 
ATOM      9  C8  UNK     1      45.977   2.142   6.790  1.00  0.00     0.074 A 
ATOM     10  C11 UNK     1      47.541   3.505   8.033  1.00  0.00     0.074 A 
ATOM     11  C12 UNK     1      47.271   2.628   6.981  1.00  0.00     0.071 A 
ENDROOT
BRANCH   3  12
ATOM     12  C3  UNK     1      41.519   1.425   8.183  1.00  0.00    -0.028 A 
ATOM     13  C9  UNK     1      41.199   0.100   8.474  1.00  0.00     0.012 A 
ATOM     14  C13 UNK     1      39.951  -0.411   8.112  1.00  0.00     0.037 A 
ATOM     15  C15 UNK     1      39.027   0.404   7.460  1.00  0.00     0.065 A 
ATOM     16  C14 UNK     1      39.349   1.731   7.169  1.00  0.00     0.037 A 
ATOM     17  C10 UNK     1      40.595   2.241   7.532  1.00  0.00     0.012 A 
BRANCH  15  18
ATOM     18  O5  UNK     1      37.811  -0.094   7.106  1.00  0.00    -0.361 OA
ATOM     19  H12 UNK     1      37.161   0.145   7.789  1.00  0.00     0.217 HD
ENDBRANCH  15  18
ENDBRANCH   3  12
BRANCH   8  20
ATOM     20  O3  UNK     1      46.833   4.779   9.889  1.00  0.00    -0.360 OA
ATOM     21  H10 UNK     1      46.240   5.547   9.851  1.00  0.00     0.217 HD
ENDBRANCH   8  20
BRANCH  11  22
ATOM     22  O4  UNK     1      48.273   2.244   6.143  1.00  0.00    -0.361 OA
ATOM     23  H11 UNK     1      48.720   3.038   5.801  1.00  0.00     0.217 HD
ENDBRANCH  11  22
TORSDOF 4
ENDMDL
MODEL 11
REMARK VINA RESULT:      -5.7      5.376      8.068
REMARK  4 active torsions:
REMARK  status: ('A' for Active; 'I' for Inactive)
REMARK    1  A    between atoms: O3_3  and  C7_12 
REMARK    2  A    between atoms: O4_4  and  C12_17 
REMARK    3  A    between atoms: O5_5  and  C15_20 
REMARK    4  A    between atoms: C1_6  and  C3_8 
ROOT
ATOM      1  O1  UNK     1      38.993  -1.115   8.076  1.00  0.00    -0.340 OA
ATOM      2  O2  UNK     1      37.583  -3.397  11.180  1.00  0.00    -0.292 OA
ATOM      3  C1  UNK     1      38.370  -0.500   9.215  1.00  0.00     0.169 C 
ATOM      4  C2  UNK     1      38.587  -1.335  10.476  1.00  0.00     0.121 C 
ATOM      5  C4  UNK     1      38.055  -3.220   8.874  1.00  0.00     0.076 A 
ATOM      6  C5  UNK     1      38.010  -2.711  10.260  1.00  0.00     0.167 C 
ATOM      7  C6  UNK     1      38.565  -2.400   7.863  1.00  0.00     0.089 A 
ATOM      8  C7  UNK     1      37.634  -4.520   8.582  1.00  0.00     0.085 A 
ATOM      9  C8  UNK     1      38.686  -2.893   6.564  1.00  0.00     0.074 A 
ATOM     10  C11 UNK     1      37.737  -5.001   7.276  1.00  0.00     0.074 A 
ATOM     11  C12 UNK     1      38.268  -4.192   6.270  1.00  0.00     0.071 A 
ENDROOT
BRANCH   3  12
ATOM     12  C3  UNK     1      38.941   0.893   9.379  1.00  0.00    -0.028 A 
ATOM     13  C9  UNK     1      38.693   1.614  10.547  1.00  0.00     0.012 A 
ATOM     14  C13 UNK     1      39.219   2.898  10.698  1.00  0.00     0.037 A 
ATOM     15  C15 UNK     1      39.991   3.459   9.682  1.00  0.00     0.065 A 
ATOM     16  C14 UNK     1      40.238   2.737   8.514  1.00  0.00     0.037 A 
ATOM     17  C10 UNK     1      39.714   1.453   8.363  1.00  0.00     0.012 A 
BRANCH  15  18
ATOM     18  O5  UNK     1      40.504   4.711   9.829  1.00  0.00    -0.361 OA
ATOM     19  H12 UNK     1      40.957   4.768  10.687  1.00  0.00     0.217 HD
ENDBRANCH  15  18
ENDBRANCH   3  12
BRANCH   8  20
ATOM     20  O3  UNK     1      37.125  -5.358   9.527  1.00  0.00    -0.360 OA
ATOM     21  H10 UNK     1      37.847  -5.860   9.940  1.00  0.00     0.217 HD
ENDBRANCH   8  20
BRANCH  11  22
ATOM     22  O4  UNK     1      38.374  -4.669   4.999  1.00  0.00    -0.361 OA
ATOM     23  H11 UNK     1      37.522  -4.547   4.544  1.00  0.00     0.217 HD
ENDBRANCH  11  22
TORSDOF 4
ENDMDL
MODEL 12
REMARK VINA RESULT:      -5.7      7.271     10.450
REMARK  4 active torsions:
REMARK  status: ('A' for Active; 'I' for Inactive)
REMARK    1  A    between atoms: O3_3  and  C7_12 
REMARK    2  A    between atoms: O4_4  and  C12_17 
REMARK    3  A    between atoms: O5_5  and  C15_20 
REMARK    4  A    between atoms: C1_6  and  C3_8 
ROOT
ATOM      1  O1  UNK     1      37.735  -5.031   5.596  1.00  0.00    -0.340 OA
ATOM      2  O2  UNK     1      37.326  -6.303   9.475  1.00  0.00    -0.292 OA
ATOM      3  C1  UNK     1      37.998  -6.397   5.952  1.00  0.00     0.169 C 
ATOM      4  C2  UNK     1      37.143  -6.829   7.141  1.00  0.00     0.121 C 
ATOM      5  C4  UNK     1      37.814  -4.539   7.983  1.00  0.00     0.076 A 
ATOM      6  C5  UNK     1      37.441  -5.931   8.314  1.00  0.00     0.167 C 
ATOM      7  C6  UNK     1      37.918  -4.163   6.641  1.00  0.00     0.089 A 
ATOM      8  C7  UNK     1      38.018  -3.601   8.998  1.00  0.00     0.085 A 
ATOM      9  C8  UNK     1      38.193  -2.835   6.313  1.00  0.00     0.074 A 
ATOM     10  C11 UNK     1      38.314  -2.279   8.663  1.00  0.00     0.074 A 
ATOM     11  C12 UNK     1      38.396  -1.895   7.324  1.00  0.00     0.071 A 
ENDROOT
BRANCH   3  12
ATOM     12  C3  UNK     1      37.729  -7.267   4.742  1.00  0.00    -0.028 A 
ATOM     13  C9  UNK     1      38.581  -8.331   4.447  1.00  0.00     0.012 A 
ATOM     14  C13 UNK     1      38.333  -9.133   3.332  1.00  0.00     0.037 A 
ATOM     15  C15 UNK     1      37.235  -8.871   2.514  1.00  0.00     0.065 A 
ATOM     16  C14 UNK     1      36.383  -7.805   2.810  1.00  0.00     0.037 A 
ATOM     17  C10 UNK     1      36.631  -7.004   3.925  1.00  0.00     0.012 A 
BRANCH  15  18
ATOM     18  O5  UNK     1      36.993  -9.652   1.426  1.00  0.00    -0.361 OA
ATOM     19  H12 UNK     1      37.128 -10.583   1.671  1.00  0.00     0.217 HD
ENDBRANCH  15  18
ENDBRANCH   3  12
BRANCH   8  20
ATOM     20  O3  UNK     1      37.933  -3.915  10.320  1.00  0.00    -0.360 OA
ATOM     21  H10 UNK     1      38.817  -4.135  10.660  1.00  0.00     0.217 HD
ENDBRANCH   8  20
BRANCH  11  22
ATOM     22  O4  UNK     1      38.677  -0.602   7.003  1.00  0.00    -0.361 OA
ATOM     23  H11 UNK     1      38.907  -0.118   7.816  1.00  0.00     0.217 HD
ENDBRANCH  11  22
TORSDOF 4
ENDMDL
MODEL 13
REMARK VINA RESULT:      -5.6      5.974      9.622
REMARK  4 active torsions:
REMARK  status: ('A' for Active; 'I' for Inactive)
REMARK    1  A    between atoms: O3_3  and  C7_12 
REMARK    2  A    between atoms: O4_4  and  C12_17 
REMARK    3  A    between atoms: O5_5  and  C15_20 
REMARK    4  A    between atoms: C1_6  and  C3_8 
ROOT
ATOM      1  O1  UNK     1      38.619  -4.179   6.057  1.00  0.00    -0.340 OA
ATOM      2  O2  UNK     1      35.136  -2.306   7.148  1.00  0.00    -0.292 OA
ATOM      3  C1  UNK     1      37.403  -4.925   6.213  1.00  0.00     0.169 C 
ATOM      4  C2  UNK     1      36.185  -4.061   5.892  1.00  0.00     0.121 C 
ATOM      5  C4  UNK     1      37.495  -2.365   7.237  1.00  0.00     0.076 A 
ATOM      6  C5  UNK     1      36.171  -2.868   6.813  1.00  0.00     0.167 C 
ATOM      7  C6  UNK     1      38.646  -3.037   6.816  1.00  0.00     0.089 A 
ATOM      8  C7  UNK     1      37.597  -1.208   8.013  1.00  0.00     0.085 A 
ATOM      9  C8  UNK     1      39.904  -2.531   7.143  1.00  0.00     0.074 A 
ATOM     10  C11 UNK     1      38.858  -0.717   8.355  1.00  0.00     0.074 A 
ATOM     11  C12 UNK     1      40.009  -1.374   7.917  1.00  0.00     0.071 A 
ENDROOT
BRANCH   3  12
ATOM     12  C3  UNK     1      37.465  -6.137   5.306  1.00  0.00    -0.028 A 
ATOM     13  C9  UNK     1      38.182  -7.266   5.703  1.00  0.00     0.012 A 
ATOM     14  C13 UNK     1      38.239  -8.383   4.868  1.00  0.00     0.037 A 
ATOM     15  C15 UNK     1      37.581  -8.370   3.639  1.00  0.00     0.065 A 
ATOM     16  C14 UNK     1      36.865  -7.239   3.243  1.00  0.00     0.037 A 
ATOM     17  C10 UNK     1      36.807  -6.124   4.078  1.00  0.00     0.012 A 
BRANCH  15  18
ATOM     18  O5  UNK     1      37.638  -9.459   2.825  1.00  0.00    -0.361 OA
ATOM     19  H12 UNK     1      37.658 -10.262   3.373  1.00  0.00     0.217 HD
ENDBRANCH  15  18
ENDBRANCH   3  12
BRANCH   8  20
ATOM     20  O3  UNK     1      36.509  -0.518   8.453  1.00  0.00    -0.360 OA
ATOM     21  H10 UNK     1      35.846  -0.469   7.744  1.00  0.00     0.217 HD
ENDBRANCH   8  20
BRANCH  11  22
ATOM     22  O4  UNK     1      41.237  -0.886   8.247  1.00  0.00    -0.361 OA
ATOM     23  H11 UNK     1      41.873  -1.622   8.270  1.00  0.00     0.217 HD
ENDBRANCH  11  22
TORSDOF 4
ENDMDL
MODEL 14
REMARK VINA RESULT:      -5.6      3.308      6.573
REMARK  4 active torsions:
REMARK  status: ('A' for Active; 'I' for Inactive)
REMARK    1  A    between atoms: O3_3  and  C7_12 
REMARK    2  A    between atoms: O4_4  and  C12_17 
REMARK    3  A    between atoms: O5_5  and  C15_20 
REMARK    4  A    between atoms: C1_6  and  C3_8 
ROOT
ATOM      1  O1  UNK     1      41.317   2.954   8.502  1.00  0.00    -0.340 OA
ATOM      2  O2  UNK     1      43.450  -0.455   9.312  1.00  0.00    -0.292 OA
ATOM      3  C1  UNK     1      42.358   2.958   9.490  1.00  0.00     0.169 C 
ATOM      4  C2  UNK     1      43.443   1.938   9.147  1.00  0.00     0.121 C 
ATOM      5  C4  UNK     1      41.420   0.520   8.603  1.00  0.00     0.076 A 
ATOM      6  C5  UNK     1      42.822   0.568   9.067  1.00  0.00     0.167 C 
ATOM      7  C6  UNK     1      40.754   1.717   8.325  1.00  0.00     0.089 A 
ATOM      8  C7  UNK     1      40.782  -0.707   8.403  1.00  0.00     0.085 A 
ATOM      9  C8  UNK     1      39.456   1.685   7.813  1.00  0.00     0.074 A 
ATOM     10  C11 UNK     1      39.477  -0.731   7.910  1.00  0.00     0.074 A 
ATOM     11  C12 UNK     1      38.817   0.461   7.610  1.00  0.00     0.071 A 
ENDROOT
BRANCH   3  12
ATOM     12  C3  UNK     1      42.932   4.357   9.575  1.00  0.00    -0.028 A 
ATOM     13  C9  UNK     1      44.247   4.596   9.176  1.00  0.00     0.012 A 
ATOM     14  C13 UNK     1      44.775   5.885   9.255  1.00  0.00     0.037 A 
ATOM     15  C15 UNK     1      43.989   6.933   9.731  1.00  0.00     0.065 A 
ATOM     16  C14 UNK     1      42.674   6.693  10.131  1.00  0.00     0.037 A 
ATOM     17  C10 UNK     1      42.145   5.405  10.051  1.00  0.00     0.012 A 
BRANCH  15  18
ATOM     18  O5  UNK     1      44.505   8.190   9.808  1.00  0.00    -0.361 OA
ATOM     19  H12 UNK     1      45.434   8.133  10.088  1.00  0.00     0.217 HD
ENDBRANCH  15  18
ENDBRANCH   3  12
BRANCH   8  20
ATOM     20  O3  UNK     1      41.383  -1.901   8.662  1.00  0.00    -0.360 OA
ATOM     21  H10 UNK     1      40.860  -2.620   8.272  1.00  0.00     0.217 HD
ENDBRANCH   8  20
BRANCH  11  22
ATOM     22  O4  UNK     1      37.546   0.431   7.121  1.00  0.00    -0.361 OA
ATOM     23  H11 UNK     1      37.581   0.274   6.162  1.00  0.00     0.217 HD
ENDBRANCH  11  22
TORSDOF 4
ENDMDL
MODEL 15
REMARK VINA RESULT:      -5.6      3.760      8.146
REMARK  4 active torsions:
REMARK  status: ('A' for Active; 'I' for Inactive)
REMARK    1  A    between atoms: O3_3  and  C7_12 
REMARK    2  A    between atoms: O4_4  and  C12_17 
REMARK    3  A    between atoms: O5_5  and  C15_20 
REMARK    4  A    between atoms: C1_6  and  C3_8 
ROOT
ATOM      1  O1  UNK     1      39.530  -0.377   7.820  1.00  0.00    -0.340 OA
ATOM      2  O2  UNK     1      35.615  -0.018   8.993  1.00  0.00    -0.292 OA
ATOM      3  C1  UNK     1      38.953   0.914   8.068  1.00  0.00     0.169 C 
ATOM      4  C2  UNK     1      37.855   0.832   9.125  1.00  0.00     0.121 C 
ATOM      5  C4  UNK     1      37.248  -1.238   7.803  1.00  0.00     0.076 A 
ATOM      6  C5  UNK     1      36.787  -0.120   8.652  1.00  0.00     0.167 C 
ATOM      7  C6  UNK     1      38.599  -1.315   7.453  1.00  0.00     0.089 A 
ATOM      8  C7  UNK     1      36.355  -2.229   7.390  1.00  0.00     0.085 A 
ATOM      9  C8  UNK     1      39.065  -2.405   6.717  1.00  0.00     0.074 A 
ATOM     10  C11 UNK     1      36.822  -3.307   6.635  1.00  0.00     0.074 A 
ATOM     11  C12 UNK     1      38.174  -3.398   6.304  1.00  0.00     0.071 A 
ENDROOT
BRANCH   3  12
ATOM     12  C3  UNK     1      40.058   1.856   8.500  1.00  0.00    -0.028 A 
ATOM     13  C9  UNK     1      39.769   2.924   9.350  1.00  0.00     0.012 A 
ATOM     14  C13 UNK     1      40.787   3.791   9.749  1.00  0.00     0.037 A 
ATOM     15  C15 UNK     1      42.091   3.591   9.298  1.00  0.00     0.065 A 
ATOM     16  C14 UNK     1      42.379   2.523   8.448  1.00  0.00     0.037 A 
ATOM     17  C10 UNK     1      41.361   1.655   8.050  1.00  0.00     0.012 A 
BRANCH  15  18
ATOM     18  O5  UNK     1      43.083   4.437   9.687  1.00  0.00    -0.361 OA
ATOM     19  H12 UNK     1      42.685   5.270   9.994  1.00  0.00     0.217 HD
ENDBRANCH  15  18
ENDBRANCH   3  12
BRANCH   8  20
ATOM     20  O3  UNK     1      35.028  -2.200   7.698  1.00  0.00    -0.360 OA
ATOM     21  H10 UNK     1      34.512  -2.005   6.898  1.00  0.00     0.217 HD
ENDBRANCH   8  20
BRANCH  11  22
ATOM     22  O4  UNK     1      38.626  -4.455   5.575  1.00  0.00    -0.361 OA
ATOM     23  H11 UNK     1      39.598  -4.475   5.617  1.00  0.00     0.217 HD
ENDBRANCH  11  22
TORSDOF 4
ENDMDL
MODEL 16
REMARK VINA RESULT:      -5.6      2.520      6.633
REMARK  4 active torsions:
REMARK  status: ('A' for Active; 'I' for Inactive)
REMARK    1  A    between atoms: O3_3  and  C7_12 
REMARK    2  A    between atoms: O4_4  and  C12_17 
REMARK    3  A    between atoms: O5_5  and  C15_20 
REMARK    4  A    between atoms: C1_6  and  C3_8 
ROOT
ATOM      1  O1  UNK     1      42.411   2.624   8.036  1.00  0.00    -0.340 OA
ATOM      2  O2  UNK     1      42.742  -1.157   9.593  1.00  0.00    -0.292 OA
ATOM      3  C1  UNK     1      43.219   2.376   9.197  1.00  0.00     0.169 C 
ATOM      4  C2  UNK     1      43.790   0.960   9.176  1.00  0.00     0.121 C 
ATOM      5  C4  UNK     1      41.439   0.419   8.413  1.00  0.00     0.076 A 
ATOM      6  C5  UNK     1      42.654  -0.028   9.126  1.00  0.00     0.167 C 
ATOM      7  C6  UNK     1      41.396   1.714   7.889  1.00  0.00     0.089 A 
ATOM      8  C7  UNK     1      40.365  -0.454   8.228  1.00  0.00     0.085 A 
ATOM      9  C8  UNK     1      40.288   2.125   7.146  1.00  0.00     0.074 A 
ATOM     10  C11 UNK     1      39.250  -0.031   7.502  1.00  0.00     0.074 A 
ATOM     11  C12 UNK     1      39.214   1.254   6.958  1.00  0.00     0.071 A 
ENDROOT
BRANCH   3  12
ATOM     12  C3  UNK     1      44.325   3.411   9.239  1.00  0.00    -0.028 A 
ATOM     13  C9  UNK     1      45.656   3.003   9.310  1.00  0.00     0.012 A 
ATOM     14  C13 UNK     1      46.675   3.956   9.349  1.00  0.00     0.037 A 
ATOM     15  C15 UNK     1      46.362   5.314   9.317  1.00  0.00     0.065 A 
ATOM     16  C14 UNK     1      45.028   5.721   9.247  1.00  0.00     0.037 A 
ATOM     17  C10 UNK     1      44.010   4.768   9.207  1.00  0.00     0.012 A 
BRANCH  15  18
ATOM     18  O5  UNK     1      47.355   6.243   9.356  1.00  0.00    -0.361 OA
ATOM     19  H12 UNK     1      47.957   6.031  10.090  1.00  0.00     0.217 HD
ENDBRANCH  15  18
ENDBRANCH   3  12
BRANCH   8  20
ATOM     20  O3  UNK     1      40.354  -1.723   8.721  1.00  0.00    -0.360 OA
ATOM     21  H10 UNK     1      39.462  -1.941   9.040  1.00  0.00     0.217 HD
ENDBRANCH   8  20
BRANCH  11  22
ATOM     22  O4  UNK     1      38.127   1.659   6.244  1.00  0.00    -0.361 OA
ATOM     23  H11 UNK     1      37.489   2.074   6.850  1.00  0.00     0.217 HD
ENDBRANCH  11  22
TORSDOF 4
ENDMDL
MODEL 17
REMARK VINA RESULT:      -5.6      2.364      4.707
REMARK  4 active torsions:
REMARK  status: ('A' for Active; 'I' for Inactive)
REMARK    1  A    between atoms: O3_3  and  C7_12 
REMARK    2  A    between atoms: O4_4  and  C12_17 
REMARK    3  A    between atoms: O5_5  and  C15_20 
REMARK    4  A    between atoms: C1_6  and  C3_8 
ROOT
ATOM      1  O1  UNK     1      47.784   1.491   9.466  1.00  0.00    -0.340 OA
ATOM      2  O2  UNK     1      49.577   3.800   6.589  1.00  0.00    -0.292 OA
ATOM      3  C1  UNK     1      46.999   2.322   8.597  1.00  0.00     0.169 C 
ATOM      4  C2  UNK     1      47.676   2.489   7.239  1.00  0.00     0.121 C 
ATOM      5  C4  UNK     1      49.720   2.763   8.705  1.00  0.00     0.076 A 
ATOM      6  C5  UNK     1      49.037   3.106   7.440  1.00  0.00     0.167 C 
ATOM      7  C6  UNK     1      49.062   1.956   9.637  1.00  0.00     0.089 A 
ATOM      8  C7  UNK     1      51.023   3.205   8.948  1.00  0.00     0.085 A 
ATOM      9  C8  UNK     1      49.722   1.561  10.801  1.00  0.00     0.074 A 
ATOM     10  C11 UNK     1      51.671   2.824  10.123  1.00  0.00     0.074 A 
ATOM     11  C12 UNK     1      51.025   1.999  11.046  1.00  0.00     0.071 A 
ENDROOT
BRANCH   3  12
ATOM     12  C3  UNK     1      45.626   1.698   8.449  1.00  0.00    -0.028 A 
ATOM     13  C9  UNK     1      44.799   2.078   7.393  1.00  0.00     0.012 A 
ATOM     14  C13 UNK     1      43.535   1.502   7.256  1.00  0.00     0.037 A 
ATOM     15  C15 UNK     1      43.100   0.549   8.176  1.00  0.00     0.065 A 
ATOM     16  C14 UNK     1      43.929   0.170   9.233  1.00  0.00     0.037 A 
ATOM     17  C10 UNK     1      45.192   0.744   9.368  1.00  0.00     0.012 A 
BRANCH  15  18
ATOM     18  O5  UNK     1      41.867  -0.012   8.043  1.00  0.00    -0.361 OA
ATOM     19  H12 UNK     1      41.960  -0.880   7.616  1.00  0.00     0.217 HD
ENDBRANCH  15  18
ENDBRANCH   3  12
BRANCH   8  20
ATOM     20  O3  UNK     1      51.707   3.996   8.076  1.00  0.00    -0.360 OA
ATOM     21  H10 UNK     1      51.702   4.913   8.396  1.00  0.00     0.217 HD
ENDBRANCH   8  20
BRANCH  11  22
ATOM     22  O4  UNK     1      51.665   1.624  12.187  1.00  0.00    -0.361 OA
ATOM     23  H11 UNK     1      52.131   2.395  12.556  1.00  0.00     0.217 HD
ENDBRANCH  11  22
TORSDOF 4
ENDMDL
MODEL 18
REMARK VINA RESULT:      -5.6      3.696      8.146
REMARK  4 active torsions:
REMARK  status: ('A' for Active; 'I' for Inactive)
REMARK    1  A    between atoms: O3_3  and  C7_12 
REMARK    2  A    between atoms: O4_4  and  C12_17 
REMARK    3  A    between atoms: O5_5  and  C15_20 
REMARK    4  A    between atoms: C1_6  and  C3_8 
ROOT
ATOM      1  O1  UNK     1      39.577  -0.421   7.805  1.00  0.00    -0.340 OA
ATOM      2  O2  UNK     1      35.684  -0.051   9.042  1.00  0.00    -0.292 OA
ATOM      3  C1  UNK     1      39.008   0.872   8.061  1.00  0.00     0.169 C 
ATOM      4  C2  UNK     1      37.927   0.792   9.137  1.00  0.00     0.121 C 
ATOM      5  C4  UNK     1      37.293  -1.276   7.825  1.00  0.00     0.076 A 
ATOM      6  C5  UNK     1      36.849  -0.157   8.682  1.00  0.00     0.167 C 
ATOM      7  C6  UNK     1      38.638  -1.356   7.453  1.00  0.00     0.089 A 
ATOM      8  C7  UNK     1      36.390  -2.265   7.427  1.00  0.00     0.085 A 
ATOM      9  C8  UNK     1      39.088  -2.448   6.709  1.00  0.00     0.074 A 
ATOM     10  C11 UNK     1      36.842  -3.343   6.665  1.00  0.00     0.074 A 
ATOM     11  C12 UNK     1      38.188  -3.438   6.311  1.00  0.00     0.071 A 
ENDROOT
BRANCH   3  12
ATOM     12  C3  UNK     1      40.123   1.811   8.476  1.00  0.00    -0.028 A 
ATOM     13  C9  UNK     1      41.421   1.597   8.013  1.00  0.00     0.012 A 
ATOM     14  C13 UNK     1      42.447   2.463   8.395  1.00  0.00     0.037 A 
ATOM     15  C15 UNK     1      42.175   3.539   9.238  1.00  0.00     0.065 A 
ATOM     16  C14 UNK     1      40.875   3.752   9.700  1.00  0.00     0.037 A 
ATOM     17  C10 UNK     1      39.849   2.887   9.318  1.00  0.00     0.012 A 
BRANCH  15  18
ATOM     18  O5  UNK     1      43.176   4.383   9.610  1.00  0.00    -0.361 OA
ATOM     19  H12 UNK     1      43.695   4.622   8.824  1.00  0.00     0.217 HD
ENDBRANCH  15  18
ENDBRANCH   3  12
BRANCH   8  20
ATOM     20  O3  UNK     1      35.069  -2.232   7.757  1.00  0.00    -0.360 OA
ATOM     21  H10 UNK     1      34.650  -1.459   7.344  1.00  0.00     0.217 HD
ENDBRANCH   8  20
BRANCH  11  22
ATOM     22  O4  UNK     1      38.625  -4.497   5.575  1.00  0.00    -0.361 OA
ATOM     23  H11 UNK     1      37.939  -4.734   4.927  1.00  0.00     0.217 HD
ENDBRANCH  11  22
TORSDOF 4
ENDMDL
MODEL 19
REMARK VINA RESULT:      -5.5      2.468      3.358
REMARK  4 active torsions:
REMARK  status: ('A' for Active; 'I' for Inactive)
REMARK    1  A    between atoms: O3_3  and  C7_12 
REMARK    2  A    between atoms: O4_4  and  C12_17 
REMARK    3  A    between atoms: O5_5  and  C15_20 
REMARK    4  A    between atoms: C1_6  and  C3_8 
ROOT
ATOM      1  O1  UNK     1      42.487   3.068   8.919  1.00  0.00    -0.340 OA
ATOM      2  O2  UNK     1      45.917   1.656   7.169  1.00  0.00    -0.292 OA
ATOM      3  C1  UNK     1      42.429   2.299   7.708  1.00  0.00     0.169 C 
ATOM      4  C2  UNK     1      43.589   1.308   7.632  1.00  0.00     0.121 C 
ATOM      5  C4  UNK     1      44.874   3.313   8.487  1.00  0.00     0.076 A 
ATOM      6  C5  UNK     1      44.890   2.067   7.692  1.00  0.00     0.167 C 
ATOM      7  C6  UNK     1      43.676   3.731   9.074  1.00  0.00     0.089 A 
ATOM      8  C7  UNK     1      46.049   4.042   8.685  1.00  0.00     0.085 A 
ATOM      9  C8  UNK     1      43.662   4.863   9.890  1.00  0.00     0.074 A 
ATOM     10  C11 UNK     1      46.025   5.185   9.485  1.00  0.00     0.074 A 
ATOM     11  C12 UNK     1      44.835   5.592  10.091  1.00  0.00     0.071 A 
ENDROOT
BRANCH   3  12
ATOM     12  C3  UNK     1      41.095   1.583   7.659  1.00  0.00    -0.028 A 
ATOM     13  C9  UNK     1      40.976   0.298   8.189  1.00  0.00     0.012 A 
ATOM     14  C13 UNK     1      39.747  -0.361   8.144  1.00  0.00     0.037 A 
ATOM     15  C15 UNK     1      38.640   0.263   7.569  1.00  0.00     0.065 A 
ATOM     16  C14 UNK     1      38.762   1.548   7.039  1.00  0.00     0.037 A 
ATOM     17  C10 UNK     1      39.990   2.208   7.085  1.00  0.00     0.012 A 
BRANCH  15  18
ATOM     18  O5  UNK     1      37.442  -0.381   7.525  1.00  0.00    -0.361 OA
ATOM     19  H12 UNK     1      37.292  -0.706   6.621  1.00  0.00     0.217 HD
ENDBRANCH  15  18
ENDBRANCH   3  12
BRANCH   8  20
ATOM     20  O3  UNK     1      47.241   3.682   8.132  1.00  0.00    -0.360 OA
ATOM     21  H10 UNK     1      47.947   4.250   8.481  1.00  0.00     0.217 HD
ENDBRANCH   8  20
BRANCH  11  22
ATOM     22  O4  UNK     1      44.819   6.703  10.878  1.00  0.00    -0.361 OA
ATOM     23  H11 UNK     1      44.506   6.457  11.765  1.00  0.00     0.217 HD
ENDBRANCH  11  22
TORSDOF 4
ENDMDL
