MODEL 1
REMARK VINA RESULT:      -7.4      0.000      0.000
REMARK  4 active torsions:
REMARK  status: ('A' for Active; 'I' for Inactive)
REMARK    1  A    between atoms: O3_3  and  C7_12 
REMARK    2  A    between atoms: O4_4  and  C12_17 
REMARK    3  A    between atoms: O5_5  and  C15_20 
REMARK    4  A    between atoms: C1_6  and  C3_8 
ROOT
ATOM      1  O1  UNK     1      39.850  15.319   0.107  1.00  0.00    -0.340 OA
ATOM      2  O2  UNK     1      41.464  16.131  -3.576  1.00  0.00    -0.292 OA
ATOM      3  C1  UNK     1      40.132  14.260  -0.820  1.00  0.00     0.169 C 
ATOM      4  C2  UNK     1      41.313  14.619  -1.720  1.00  0.00     0.121 C 
ATOM      5  C4  UNK     1      40.120  16.849  -1.772  1.00  0.00     0.076 A 
ATOM      6  C5  UNK     1      40.990  15.883  -2.474  1.00  0.00     0.167 C 
ATOM      7  C6  UNK     1      39.617  16.521  -0.510  1.00  0.00     0.089 A 
ATOM      8  C7  UNK     1      39.838  18.093  -2.343  1.00  0.00     0.085 A 
ATOM      9  C8  UNK     1      38.858  17.453   0.198  1.00  0.00     0.074 A 
ATOM     10  C11 UNK     1      39.060  19.013  -1.639  1.00  0.00     0.074 A 
ATOM     11  C12 UNK     1      38.576  18.697  -0.369  1.00  0.00     0.071 A 
ENDROOT
BRANCH   3  12
ATOM     12  C3  UNK     1      40.410  12.996  -0.033  1.00  0.00    -0.028 A 
ATOM     13  C9  UNK     1      40.259  12.992   1.354  1.00  0.00     0.012 A 
ATOM     14  C13 UNK     1      40.514  11.827   2.079  1.00  0.00     0.037 A 
ATOM     15  C15 UNK     1      40.922  10.669   1.418  1.00  0.00     0.065 A 
ATOM     16  C14 UNK     1      41.073  10.675   0.030  1.00  0.00     0.037 A 
ATOM     17  C10 UNK     1      40.817  11.838  -0.694  1.00  0.00     0.012 A 
BRANCH  15  18
ATOM     18  O5  UNK     1      41.172   9.534   2.125  1.00  0.00    -0.361 OA
ATOM     19  H12 UNK     1      41.980   9.661   2.650  1.00  0.00     0.217 HD
ENDBRANCH  15  18
ENDBRANCH   3  12
BRANCH   8  20
ATOM     20  O3  UNK     1      40.298  18.461  -3.570  1.00  0.00    -0.360 OA
ATOM     21  H10 UNK     1      41.233  18.209  -3.656  1.00  0.00     0.217 HD
ENDBRANCH   8  20
BRANCH  11  22
ATOM     22  O4  UNK     1      37.824  19.601   0.317  1.00  0.00    -0.361 OA
ATOM     23  H11 UNK     1      38.096  19.594   1.251  1.00  0.00     0.217 HD
ENDBRANCH  11  22
TORSDOF 4
ENDMDL
MODEL 2
REMARK VINA RESULT:      -7.1      1.341      2.832
REMARK  4 active torsions:
REMARK  status: ('A' for Active; 'I' for Inactive)
REMARK    1  A    between atoms: O3_3  and  C7_12 
REMARK    2  A    between atoms: O4_4  and  C12_17 
REMARK    3  A    between atoms: O5_5  and  C15_20 
REMARK    4  A    between atoms: C1_6  and  C3_8 
ROOT
ATOM      1  O1  UNK     1      40.463  15.122  -1.992  1.00  0.00    -0.340 OA
ATOM      2  O2  UNK     1      38.806  18.074   0.325  1.00  0.00    -0.292 OA
ATOM      3  C1  UNK     1      40.525  15.052  -0.559  1.00  0.00     0.169 C 
ATOM      4  C2  UNK     1      39.321  15.745   0.076  1.00  0.00     0.121 C 
ATOM      5  C4  UNK     1      39.830  17.460  -1.712  1.00  0.00     0.076 A 
ATOM      6  C5  UNK     1      39.294  17.186  -0.362  1.00  0.00     0.167 C 
ATOM      7  C6  UNK     1      40.364  16.407  -2.459  1.00  0.00     0.089 A 
ATOM      8  C7  UNK     1      39.765  18.747  -2.252  1.00  0.00     0.085 A 
ATOM      9  C8  UNK     1      40.803  16.635  -3.764  1.00  0.00     0.074 A 
ATOM     10  C11 UNK     1      40.225  18.973  -3.550  1.00  0.00     0.074 A 
ATOM     11  C12 UNK     1      40.738  17.919  -4.307  1.00  0.00     0.071 A 
ENDROOT
BRANCH   3  12
ATOM     12  C3  UNK     1      40.592  13.594  -0.153  1.00  0.00    -0.028 A 
ATOM     13  C9  UNK     1      40.163  13.204   1.115  1.00  0.00     0.012 A 
ATOM     14  C13 UNK     1      40.225  11.861   1.488  1.00  0.00     0.037 A 
ATOM     15  C15 UNK     1      40.716  10.910   0.594  1.00  0.00     0.065 A 
ATOM     16  C14 UNK     1      41.145  11.302  -0.675  1.00  0.00     0.037 A 
ATOM     17  C10 UNK     1      41.082  12.644  -1.048  1.00  0.00     0.012 A 
BRANCH  15  18
ATOM     18  O5  UNK     1      40.777   9.600   0.959  1.00  0.00    -0.361 OA
ATOM     19  H12 UNK     1      39.914   9.185   0.789  1.00  0.00     0.217 HD
ENDBRANCH  15  18
ENDBRANCH   3  12
BRANCH   8  20
ATOM     20  O3  UNK     1      39.259  19.809  -1.565  1.00  0.00    -0.360 OA
ATOM     21  H10 UNK     1      39.642  19.831  -0.673  1.00  0.00     0.217 HD
ENDBRANCH   8  20
BRANCH  11  22
ATOM     22  O4  UNK     1      41.177  18.144  -5.576  1.00  0.00    -0.361 OA
ATOM     23  H11 UNK     1      40.464  18.564  -6.087  1.00  0.00     0.217 HD
ENDBRANCH  11  22
TORSDOF 4
ENDMDL
MODEL 3
REMARK VINA RESULT:      -6.9      1.044      1.538
REMARK  4 active torsions:
REMARK  status: ('A' for Active; 'I' for Inactive)
REMARK    1  A    between atoms: O3_3  and  C7_12 
REMARK    2  A    between atoms: O4_4  and  C12_17 
REMARK    3  A    between atoms: O5_5  and  C15_20 
REMARK    4  A    between atoms: C1_6  and  C3_8 
ROOT
ATOM      1  O1  UNK     1      39.817  15.894  -0.242  1.00  0.00    -0.340 OA
ATOM      2  O2  UNK     1      40.933  17.356  -3.908  1.00  0.00    -0.292 OA
ATOM      3  C1  UNK     1      39.893  15.028  -1.385  1.00  0.00     0.169 C 
ATOM      4  C2  UNK     1      40.953  15.514  -2.371  1.00  0.00     0.121 C 
ATOM      5  C4  UNK     1      39.913  17.753  -1.817  1.00  0.00     0.076 A 
ATOM      6  C5  UNK     1      40.608  16.913  -2.814  1.00  0.00     0.167 C 
ATOM      7  C6  UNK     1      39.576  17.201  -0.578  1.00  0.00     0.089 A 
ATOM      8  C7  UNK     1      39.633  19.094  -2.092  1.00  0.00     0.085 A 
ATOM      9  C8  UNK     1      38.989  18.002   0.402  1.00  0.00     0.074 A 
ATOM     10  C11 UNK     1      39.026  19.885  -1.116  1.00  0.00     0.074 A 
ATOM     11  C12 UNK     1      38.710  19.343   0.131  1.00  0.00     0.071 A 
ENDROOT
BRANCH   3  12
ATOM     12  C3  UNK     1      40.198  13.625  -0.903  1.00  0.00    -0.028 A 
ATOM     13  C9  UNK     1      41.174  12.865  -1.548  1.00  0.00     0.012 A 
ATOM     14  C13 UNK     1      41.455  11.572  -1.103  1.00  0.00     0.037 A 
ATOM     15  C15 UNK     1      40.762  11.042  -0.016  1.00  0.00     0.065 A 
ATOM     16  C14 UNK     1      39.786  11.803   0.628  1.00  0.00     0.037 A 
ATOM     17  C10 UNK     1      39.505  13.096   0.185  1.00  0.00     0.012 A 
BRANCH  15  18
ATOM     18  O5  UNK     1      41.036   9.781   0.417  1.00  0.00    -0.361 OA
ATOM     19  H12 UNK     1      41.557   9.320  -0.263  1.00  0.00     0.217 HD
ENDBRANCH  15  18
ENDBRANCH   3  12
BRANCH   8  20
ATOM     20  O3  UNK     1      39.935  19.680  -3.284  1.00  0.00    -0.360 OA
ATOM     21  H10 UNK     1      39.247  19.466  -3.935  1.00  0.00     0.217 HD
ENDBRANCH   8  20
BRANCH  11  22
ATOM     22  O4  UNK     1      38.125  20.122   1.082  1.00  0.00    -0.361 OA
ATOM     23  H11 UNK     1      38.719  20.180   1.851  1.00  0.00     0.217 HD
ENDBRANCH  11  22
TORSDOF 4
ENDMDL
MODEL 4
REMARK VINA RESULT:      -6.1      1.620      6.436
REMARK  4 active torsions:
REMARK  status: ('A' for Active; 'I' for Inactive)
REMARK    1  A    between atoms: O3_3  and  C7_12 
REMARK    2  A    between atoms: O4_4  and  C12_17 
REMARK    3  A    between atoms: O5_5  and  C15_20 
REMARK    4  A    between atoms: C1_6  and  C3_8 
ROOT
ATOM      1  O1  UNK     1      39.367  15.077  -0.315  1.00  0.00    -0.340 OA
ATOM      2  O2  UNK     1      42.525  14.417  -2.849  1.00  0.00    -0.292 OA
ATOM      3  C1  UNK     1      40.291  16.132  -0.626  1.00  0.00     0.169 C 
ATOM      4  C2  UNK     1      40.876  15.952  -2.026  1.00  0.00     0.121 C 
ATOM      5  C4  UNK     1      41.012  13.545  -1.260  1.00  0.00     0.076 A 
ATOM      6  C5  UNK     1      41.578  14.621  -2.099  1.00  0.00     0.167 C 
ATOM      7  C6  UNK     1      39.923  13.830  -0.431  1.00  0.00     0.089 A 
ATOM      8  C7  UNK     1      41.529  12.249  -1.326  1.00  0.00     0.085 A 
ATOM      9  C8  UNK     1      39.328  12.807   0.308  1.00  0.00     0.074 A 
ATOM     10  C11 UNK     1      40.943  11.234  -0.568  1.00  0.00     0.074 A 
ATOM     11  C12 UNK     1      39.841  11.510   0.243  1.00  0.00     0.071 A 
ENDROOT
BRANCH   3  12
ATOM     12  C3  UNK     1      39.566  17.456  -0.503  1.00  0.00    -0.028 A 
ATOM     13  C9  UNK     1      38.778  17.716   0.618  1.00  0.00     0.012 A 
ATOM     14  C13 UNK     1      38.110  18.936   0.731  1.00  0.00     0.037 A 
ATOM     15  C15 UNK     1      38.230  19.893  -0.275  1.00  0.00     0.065 A 
ATOM     16  C14 UNK     1      39.019  19.632  -1.396  1.00  0.00     0.037 A 
ATOM     17  C10 UNK     1      39.687  18.413  -1.509  1.00  0.00     0.012 A 
BRANCH  15  18
ATOM     18  O5  UNK     1      37.578  21.083  -0.164  1.00  0.00    -0.361 OA
ATOM     19  H12 UNK     1      37.348  21.231   0.769  1.00  0.00     0.217 HD
ENDBRANCH  15  18
ENDBRANCH   3  12
BRANCH   8  20
ATOM     20  O3  UNK     1      42.591  11.919  -2.113  1.00  0.00    -0.360 OA
ATOM     21  H10 UNK     1      42.649  12.539  -2.858  1.00  0.00     0.217 HD
ENDBRANCH   8  20
BRANCH  11  22
ATOM     22  O4  UNK     1      39.269  10.515   0.974  1.00  0.00    -0.361 OA
ATOM     23  H11 UNK     1      39.509   9.657   0.582  1.00  0.00     0.217 HD
ENDBRANCH  11  22
TORSDOF 4
ENDMDL
MODEL 5
REMARK VINA RESULT:      -5.6     10.133     12.899
REMARK  4 active torsions:
REMARK  status: ('A' for Active; 'I' for Inactive)
REMARK    1  A    between atoms: O3_3  and  C7_12 
REMARK    2  A    between atoms: O4_4  and  C12_17 
REMARK    3  A    between atoms: O5_5  and  C15_20 
REMARK    4  A    between atoms: C1_6  and  C3_8 
ROOT
ATOM      1  O1  UNK     1      48.342   9.847  -6.827  1.00  0.00    -0.340 OA
ATOM      2  O2  UNK     1      45.808  10.060 -10.046  1.00  0.00    -0.292 OA
ATOM      3  C1  UNK     1      48.001  11.114  -7.409  1.00  0.00     0.169 C 
ATOM      4  C2  UNK     1      46.603  11.077  -8.023  1.00  0.00     0.121 C 
ATOM      5  C4  UNK     1      47.425   8.829  -8.844  1.00  0.00     0.076 A 
ATOM      6  C5  UNK     1      46.558  10.002  -9.079  1.00  0.00     0.167 C 
ATOM      7  C6  UNK     1      48.253   8.809  -7.718  1.00  0.00     0.089 A 
ATOM      8  C7  UNK     1      47.388   7.735  -9.712  1.00  0.00     0.085 A 
ATOM      9  C8  UNK     1      49.020   7.677  -7.440  1.00  0.00     0.074 A 
ATOM     10  C11 UNK     1      48.173   6.614  -9.441  1.00  0.00     0.074 A 
ATOM     11  C12 UNK     1      48.983   6.582  -8.305  1.00  0.00     0.071 A 
ENDROOT
BRANCH   3  12
ATOM     12  C3  UNK     1      48.096  12.177  -6.334  1.00  0.00    -0.028 A 
ATOM     13  C9  UNK     1      48.569  13.449  -6.653  1.00  0.00     0.012 A 
ATOM     14  C13 UNK     1      48.656  14.428  -5.662  1.00  0.00     0.037 A 
ATOM     15  C15 UNK     1      48.271  14.134  -4.355  1.00  0.00     0.065 A 
ATOM     16  C14 UNK     1      47.798  12.860  -4.037  1.00  0.00     0.037 A 
ATOM     17  C10 UNK     1      47.710  11.882  -5.027  1.00  0.00     0.012 A 
BRANCH  15  18
ATOM     18  O5  UNK     1      48.356  15.089  -3.388  1.00  0.00    -0.361 OA
ATOM     19  H12 UNK     1      48.213  15.961  -3.793  1.00  0.00     0.217 HD
ENDBRANCH  15  18
ENDBRANCH   3  12
BRANCH   8  20
ATOM     20  O3  UNK     1      46.604   7.705 -10.825  1.00  0.00    -0.360 OA
ATOM     21  H10 UNK     1      45.696   7.957 -10.590  1.00  0.00     0.217 HD
ENDBRANCH   8  20
BRANCH  11  22
ATOM     22  O4  UNK     1      49.741   5.482  -8.041  1.00  0.00    -0.361 OA
ATOM     23  H11 UNK     1      49.577   5.198  -7.125  1.00  0.00     0.217 HD
ENDBRANCH  11  22
TORSDOF 4
ENDMDL
MODEL 6
REMARK VINA RESULT:      -5.6     10.134     12.884
REMARK  4 active torsions:
REMARK  status: ('A' for Active; 'I' for Inactive)
REMARK    1  A    between atoms: O3_3  and  C7_12 
REMARK    2  A    between atoms: O4_4  and  C12_17 
REMARK    3  A    between atoms: O5_5  and  C15_20 
REMARK    4  A    between atoms: C1_6  and  C3_8 
ROOT
ATOM      1  O1  UNK     1      48.342   9.847  -6.829  1.00  0.00    -0.340 OA
ATOM      2  O2  UNK     1      45.808  10.059 -10.047  1.00  0.00    -0.292 OA
ATOM      3  C1  UNK     1      48.000  11.114  -7.411  1.00  0.00     0.169 C 
ATOM      4  C2  UNK     1      46.603  11.077  -8.025  1.00  0.00     0.121 C 
ATOM      5  C4  UNK     1      47.425   8.829  -8.845  1.00  0.00     0.076 A 
ATOM      6  C5  UNK     1      46.558  10.002  -9.081  1.00  0.00     0.167 C 
ATOM      7  C6  UNK     1      48.252   8.809  -7.719  1.00  0.00     0.089 A 
ATOM      8  C7  UNK     1      47.388   7.735  -9.713  1.00  0.00     0.085 A 
ATOM      9  C8  UNK     1      49.019   7.677  -7.442  1.00  0.00     0.074 A 
ATOM     10  C11 UNK     1      48.173   6.614  -9.442  1.00  0.00     0.074 A 
ATOM     11  C12 UNK     1      48.983   6.582  -8.306  1.00  0.00     0.071 A 
ENDROOT
BRANCH   3  12
ATOM     12  C3  UNK     1      48.096  12.177  -6.336  1.00  0.00    -0.028 A 
ATOM     13  C9  UNK     1      47.709  11.881  -5.029  1.00  0.00     0.012 A 
ATOM     14  C13 UNK     1      47.797  12.860  -4.038  1.00  0.00     0.037 A 
ATOM     15  C15 UNK     1      48.271  14.132  -4.355  1.00  0.00     0.065 A 
ATOM     16  C14 UNK     1      48.657  14.427  -5.664  1.00  0.00     0.037 A 
ATOM     17  C10 UNK     1      48.570  13.449  -6.653  1.00  0.00     0.012 A 
BRANCH  15  18
ATOM     18  O5  UNK     1      48.356  15.087  -3.389  1.00  0.00    -0.361 OA
ATOM     19  H12 UNK     1      47.486  15.187  -2.967  1.00  0.00     0.217 HD
ENDBRANCH  15  18
ENDBRANCH   3  12
BRANCH   8  20
ATOM     20  O3  UNK     1      46.604   7.705 -10.827  1.00  0.00    -0.360 OA
ATOM     21  H10 UNK     1      45.767   8.165 -10.648  1.00  0.00     0.217 HD
ENDBRANCH   8  20
BRANCH  11  22
ATOM     22  O4  UNK     1      49.740   5.482  -8.042  1.00  0.00    -0.361 OA
ATOM     23  H11 UNK     1      50.499   5.746  -7.494  1.00  0.00     0.217 HD
ENDBRANCH  11  22
TORSDOF 4
ENDMDL
MODEL 7
REMARK VINA RESULT:      -5.6      9.692     12.041
REMARK  4 active torsions:
REMARK  status: ('A' for Active; 'I' for Inactive)
REMARK    1  A    between atoms: O3_3  and  C7_12 
REMARK    2  A    between atoms: O4_4  and  C12_17 
REMARK    3  A    between atoms: O5_5  and  C15_20 
REMARK    4  A    between atoms: C1_6  and  C3_8 
ROOT
ATOM      1  O1  UNK     1      46.160  11.103  -7.761  1.00  0.00    -0.340 OA
ATOM      2  O2  UNK     1      48.829  10.161 -10.731  1.00  0.00    -0.292 OA
ATOM      3  C1  UNK     1      47.575  11.141  -7.516  1.00  0.00     0.169 C 
ATOM      4  C2  UNK     1      48.343  11.485  -8.791  1.00  0.00     0.121 C 
ATOM      5  C4  UNK     1      46.686   9.855  -9.790  1.00  0.00     0.076 A 
ATOM      6  C5  UNK     1      48.037  10.452  -9.844  1.00  0.00     0.167 C 
ATOM      7  C6  UNK     1      45.816  10.232  -8.762  1.00  0.00     0.089 A 
ATOM      8  C7  UNK     1      46.267   8.958 -10.776  1.00  0.00     0.085 A 
ATOM      9  C8  UNK     1      44.512   9.736  -8.741  1.00  0.00     0.074 A 
ATOM     10  C11 UNK     1      44.969   8.449 -10.737  1.00  0.00     0.074 A 
ATOM     11  C12 UNK     1      44.090   8.841  -9.726  1.00  0.00     0.071 A 
ENDROOT
BRANCH   3  12
ATOM     12  C3  UNK     1      47.844  12.157  -6.425  1.00  0.00    -0.028 A 
ATOM     13  C9  UNK     1      48.338  13.419  -6.756  1.00  0.00     0.012 A 
ATOM     14  C13 UNK     1      48.586  14.355  -5.751  1.00  0.00     0.037 A 
ATOM     15  C15 UNK     1      48.340  14.028  -4.418  1.00  0.00     0.065 A 
ATOM     16  C14 UNK     1      47.846  12.765  -4.089  1.00  0.00     0.037 A 
ATOM     17  C10 UNK     1      47.598  11.830  -5.093  1.00  0.00     0.012 A 
BRANCH  15  18
ATOM     18  O5  UNK     1      48.583  14.941  -3.438  1.00  0.00    -0.361 OA
ATOM     19  H12 UNK     1      47.783  15.477  -3.302  1.00  0.00     0.217 HD
ENDBRANCH  15  18
ENDBRANCH   3  12
BRANCH   8  20
ATOM     20  O3  UNK     1      47.076   8.555 -11.795  1.00  0.00    -0.360 OA
ATOM     21  H10 UNK     1      46.534   8.314 -12.564  1.00  0.00     0.217 HD
ENDBRANCH   8  20
BRANCH  11  22
ATOM     22  O4  UNK     1      42.822   8.348  -9.698  1.00  0.00    -0.361 OA
ATOM     23  H11 UNK     1      42.464   8.345 -10.603  1.00  0.00     0.217 HD
ENDBRANCH  11  22
TORSDOF 4
ENDMDL
MODEL 8
REMARK VINA RESULT:      -5.5     10.044     11.964
REMARK  4 active torsions:
REMARK  status: ('A' for Active; 'I' for Inactive)
REMARK    1  A    between atoms: O3_3  and  C7_12 
REMARK    2  A    between atoms: O4_4  and  C12_17 
REMARK    3  A    between atoms: O5_5  and  C15_20 
REMARK    4  A    between atoms: C1_6  and  C3_8 
ROOT
ATOM      1  O1  UNK     1      46.262  11.487  -7.862  1.00  0.00    -0.340 OA
ATOM      2  O2  UNK     1      48.221   8.115  -9.134  1.00  0.00    -0.292 OA
ATOM      3  C1  UNK     1      47.422  11.006  -7.166  1.00  0.00     0.169 C 
ATOM      4  C2  UNK     1      48.372  10.283  -8.119  1.00  0.00     0.121 C 
ATOM      5  C4  UNK     1      46.195   9.315  -8.967  1.00  0.00     0.076 A 
ATOM      6  C5  UNK     1      47.645   9.127  -8.756  1.00  0.00     0.167 C 
ATOM      7  C6  UNK     1      45.589  10.495  -8.527  1.00  0.00     0.089 A 
ATOM      8  C7  UNK     1      45.445   8.344  -9.636  1.00  0.00     0.085 A 
ATOM      9  C8  UNK     1      44.237  10.720  -8.787  1.00  0.00     0.074 A 
ATOM     10  C11 UNK     1      44.088   8.565  -9.874  1.00  0.00     0.074 A 
ATOM     11  C12 UNK     1      43.486   9.753  -9.456  1.00  0.00     0.071 A 
ENDROOT
BRANCH   3  12
ATOM     12  C3  UNK     1      48.106  12.184  -6.503  1.00  0.00    -0.028 A 
ATOM     13  C9  UNK     1      47.784  12.527  -5.190  1.00  0.00     0.012 A 
ATOM     14  C13 UNK     1      48.415  13.612  -4.580  1.00  0.00     0.037 A 
ATOM     15  C15 UNK     1      49.365  14.352  -5.282  1.00  0.00     0.065 A 
ATOM     16  C14 UNK     1      49.685  14.009  -6.596  1.00  0.00     0.037 A 
ATOM     17  C10 UNK     1      49.056  12.923  -7.206  1.00  0.00     0.012 A 
BRANCH  15  18
ATOM     18  O5  UNK     1      49.979  15.411  -4.686  1.00  0.00    -0.361 OA
ATOM     19  H12 UNK     1      50.426  15.103  -3.880  1.00  0.00     0.217 HD
ENDBRANCH  15  18
ENDBRANCH   3  12
BRANCH   8  20
ATOM     20  O3  UNK     1      45.984   7.175 -10.081  1.00  0.00    -0.360 OA
ATOM     21  H10 UNK     1      45.291   6.495 -10.129  1.00  0.00     0.217 HD
ENDBRANCH   8  20
BRANCH  11  22
ATOM     22  O4  UNK     1      42.164   9.967  -9.699  1.00  0.00    -0.361 OA
ATOM     23  H11 UNK     1      41.816  10.583  -9.031  1.00  0.00     0.217 HD
ENDBRANCH  11  22
TORSDOF 4
ENDMDL
MODEL 9
REMARK VINA RESULT:      -5.5      9.685     12.005
REMARK  4 active torsions:
REMARK  status: ('A' for Active; 'I' for Inactive)
REMARK    1  A    between atoms: O3_3  and  C7_12 
REMARK    2  A    between atoms: O4_4  and  C12_17 
REMARK    3  A    between atoms: O5_5  and  C15_20 
REMARK    4  A    between atoms: C1_6  and  C3_8 
ROOT
ATOM      1  O1  UNK     1      46.178  11.134  -7.770  1.00  0.00    -0.340 OA
ATOM      2  O2  UNK     1      48.652  10.662 -11.009  1.00  0.00    -0.292 OA
ATOM      3  C1  UNK     1      47.600  11.288  -7.637  1.00  0.00     0.169 C 
ATOM      4  C2  UNK     1      48.221  11.792  -8.937  1.00  0.00     0.121 C 
ATOM      5  C4  UNK     1      46.634  10.089  -9.926  1.00  0.00     0.076 A 
ATOM      6  C5  UNK     1      47.917  10.813 -10.041  1.00  0.00     0.167 C 
ATOM      7  C6  UNK     1      45.826  10.308  -8.806  1.00  0.00     0.089 A 
ATOM      8  C7  UNK     1      46.212   9.229 -10.943  1.00  0.00     0.085 A 
ATOM      9  C8  UNK     1      44.578   9.691  -8.720  1.00  0.00     0.074 A 
ATOM     10  C11 UNK     1      44.971   8.599 -10.842  1.00  0.00     0.074 A 
ATOM     11  C12 UNK     1      44.153   8.833  -9.736  1.00  0.00     0.071 A 
ENDROOT
BRANCH   3  12
ATOM     12  C3  UNK     1      47.872  12.244  -6.494  1.00  0.00    -0.028 A 
ATOM     13  C9  UNK     1      47.554  11.876  -5.187  1.00  0.00     0.012 A 
ATOM     14  C13 UNK     1      47.805  12.757  -4.135  1.00  0.00     0.037 A 
ATOM     15  C15 UNK     1      48.374  14.004  -4.390  1.00  0.00     0.065 A 
ATOM     16  C14 UNK     1      48.692  14.371  -5.698  1.00  0.00     0.037 A 
ATOM     17  C10 UNK     1      48.442  13.490  -6.750  1.00  0.00     0.012 A 
BRANCH  15  18
ATOM     18  O5  UNK     1      48.619  14.863  -3.363  1.00  0.00    -0.361 OA
ATOM     19  H12 UNK     1      49.556  14.796  -3.113  1.00  0.00     0.217 HD
ENDBRANCH  15  18
ENDBRANCH   3  12
BRANCH   8  20
ATOM     20  O3  UNK     1      46.961   8.977 -12.052  1.00  0.00    -0.360 OA
ATOM     21  H10 UNK     1      47.510   9.752 -12.257  1.00  0.00     0.217 HD
ENDBRANCH   8  20
BRANCH  11  22
ATOM     22  O4  UNK     1      42.940   8.222  -9.646  1.00  0.00    -0.361 OA
ATOM     23  H11 UNK     1      42.698   7.871 -10.521  1.00  0.00     0.217 HD
ENDBRANCH  11  22
TORSDOF 4
ENDMDL
MODEL 10
REMARK VINA RESULT:      -5.5     10.133     12.032
REMARK  4 active torsions:
REMARK  status: ('A' for Active; 'I' for Inactive)
REMARK    1  A    between atoms: O3_3  and  C7_12 
REMARK    2  A    between atoms: O4_4  and  C12_17 
REMARK    3  A    between atoms: O5_5  and  C15_20 
REMARK    4  A    between atoms: C1_6  and  C3_8 
ROOT
ATOM      1  O1  UNK     1      46.224  11.399  -7.914  1.00  0.00    -0.340 OA
ATOM      2  O2  UNK     1      48.102   7.998  -9.231  1.00  0.00    -0.292 OA
ATOM      3  C1  UNK     1      47.383  10.891  -7.235  1.00  0.00     0.169 C 
ATOM      4  C2  UNK     1      48.307  10.156  -8.204  1.00  0.00     0.121 C 
ATOM      5  C4  UNK     1      46.102   9.236  -9.032  1.00  0.00     0.076 A 
ATOM      6  C5  UNK     1      47.550   9.019  -8.840  1.00  0.00     0.167 C 
ATOM      7  C6  UNK     1      45.524  10.425  -8.578  1.00  0.00     0.089 A 
ATOM      8  C7  UNK     1      45.325   8.284  -9.698  1.00  0.00     0.085 A 
ATOM      9  C8  UNK     1      44.174  10.677  -8.821  1.00  0.00     0.074 A 
ATOM     10  C11 UNK     1      43.970   8.533  -9.920  1.00  0.00     0.074 A 
ATOM     11  C12 UNK     1      43.396   9.729  -9.487  1.00  0.00     0.071 A 
ENDROOT
BRANCH   3  12
ATOM     12  C3  UNK     1      48.097  12.052  -6.573  1.00  0.00    -0.028 A 
ATOM     13  C9  UNK     1      49.031  12.796  -7.293  1.00  0.00     0.012 A 
ATOM     14  C13 UNK     1      49.688  13.865  -6.683  1.00  0.00     0.037 A 
ATOM     15  C15 UNK     1      49.411  14.188  -5.355  1.00  0.00     0.065 A 
ATOM     16  C14 UNK     1      48.476  13.443  -4.636  1.00  0.00     0.037 A 
ATOM     17  C10 UNK     1      47.818  12.375  -5.246  1.00  0.00     0.012 A 
BRANCH  15  18
ATOM     18  O5  UNK     1      50.053  15.231  -4.760  1.00  0.00    -0.361 OA
ATOM     19  H12 UNK     1      49.472  16.010  -4.779  1.00  0.00     0.217 HD
ENDBRANCH  15  18
ENDBRANCH   3  12
BRANCH   8  20
ATOM     20  O3  UNK     1      45.836   7.107 -10.157  1.00  0.00    -0.360 OA
ATOM     21  H10 UNK     1      46.778   7.221 -10.368  1.00  0.00     0.217 HD
ENDBRANCH   8  20
BRANCH  11  22
ATOM     22  O4  UNK     1      42.076   9.970  -9.713  1.00  0.00    -0.361 OA
ATOM     23  H11 UNK     1      41.956  10.223 -10.646  1.00  0.00     0.217 HD
ENDBRANCH  11  22
TORSDOF 4
ENDMDL
MODEL 11
REMARK VINA RESULT:      -5.5     10.031     11.269
REMARK  4 active torsions:
REMARK  status: ('A' for Active; 'I' for Inactive)
REMARK    1  A    between atoms: O3_3  and  C7_12 
REMARK    2  A    between atoms: O4_4  and  C12_17 
REMARK    3  A    between atoms: O5_5  and  C15_20 
REMARK    4  A    between atoms: C1_6  and  C3_8 
ROOT
ATOM      1  O1  UNK     1      46.348  11.334  -7.260  1.00  0.00    -0.340 OA
ATOM      2  O2  UNK     1      48.530  12.096 -10.648  1.00  0.00    -0.292 OA
ATOM      3  C1  UNK     1      47.775  11.168  -7.267  1.00  0.00     0.169 C 
ATOM      4  C2  UNK     1      48.434  12.131  -8.252  1.00  0.00     0.121 C 
ATOM      5  C4  UNK     1      46.484  11.410  -9.693  1.00  0.00     0.076 A 
ATOM      6  C5  UNK     1      47.885  11.876  -9.632  1.00  0.00     0.167 C 
ATOM      7  C6  UNK     1      45.788  11.187  -8.502  1.00  0.00     0.089 A 
ATOM      8  C7  UNK     1      45.848  11.236 -10.925  1.00  0.00     0.085 A 
ATOM      9  C8  UNK     1      44.442  10.821  -8.543  1.00  0.00     0.074 A 
ATOM     10  C11 UNK     1      44.508  10.849 -10.960  1.00  0.00     0.074 A 
ATOM     11  C12 UNK     1      43.804  10.648  -9.772  1.00  0.00     0.071 A 
ENDROOT
BRANCH   3  12
ATOM     12  C3  UNK     1      48.290  11.389  -5.859  1.00  0.00    -0.028 A 
ATOM     13  C9  UNK     1      48.986  10.372  -5.206  1.00  0.00     0.012 A 
ATOM     14  C13 UNK     1      49.461  10.576  -3.910  1.00  0.00     0.037 A 
ATOM     15  C15 UNK     1      49.239  11.794  -3.269  1.00  0.00     0.065 A 
ATOM     16  C14 UNK     1      48.541  12.811  -3.924  1.00  0.00     0.037 A 
ATOM     17  C10 UNK     1      48.068  12.607  -5.220  1.00  0.00     0.012 A 
BRANCH  15  18
ATOM     18  O5  UNK     1      49.702  11.993  -2.004  1.00  0.00    -0.361 OA
ATOM     19  H12 UNK     1      49.870  12.942  -1.876  1.00  0.00     0.217 HD
ENDBRANCH  15  18
ENDBRANCH   3  12
BRANCH   8  20
ATOM     20  O3  UNK     1      46.481  11.435 -12.114  1.00  0.00    -0.360 OA
ATOM     21  H10 UNK     1      45.822  11.572 -12.815  1.00  0.00     0.217 HD
ENDBRANCH   8  20
BRANCH  11  22
ATOM     22  O4  UNK     1      42.494  10.279  -9.812  1.00  0.00    -0.361 OA
ATOM     23  H11 UNK     1      42.421   9.424 -10.271  1.00  0.00     0.217 HD
ENDBRANCH  11  22
TORSDOF 4
ENDMDL
MODEL 12
REMARK VINA RESULT:      -5.4     10.054     11.245
REMARK  4 active torsions:
REMARK  status: ('A' for Active; 'I' for Inactive)
REMARK    1  A    between atoms: O3_3  and  C7_12 
REMARK    2  A    between atoms: O4_4  and  C12_17 
REMARK    3  A    between atoms: O5_5  and  C15_20 
REMARK    4  A    between atoms: C1_6  and  C3_8 
ROOT
ATOM      1  O1  UNK     1      46.343  11.340  -7.269  1.00  0.00    -0.340 OA
ATOM      2  O2  UNK     1      48.517  12.098 -10.663  1.00  0.00    -0.292 OA
ATOM      3  C1  UNK     1      47.769  11.176  -7.278  1.00  0.00     0.169 C 
ATOM      4  C2  UNK     1      48.425  12.138  -8.267  1.00  0.00     0.121 C 
ATOM      5  C4  UNK     1      46.473  11.410  -9.702  1.00  0.00     0.076 A 
ATOM      6  C5  UNK     1      47.873  11.879  -9.645  1.00  0.00     0.167 C 
ATOM      7  C6  UNK     1      45.780  11.188  -8.509  1.00  0.00     0.089 A 
ATOM      8  C7  UNK     1      45.836  11.232 -10.933  1.00  0.00     0.085 A 
ATOM      9  C8  UNK     1      44.434  10.820  -8.547  1.00  0.00     0.074 A 
ATOM     10  C11 UNK     1      44.496  10.843 -10.965  1.00  0.00     0.074 A 
ATOM     11  C12 UNK     1      43.795  10.643  -9.775  1.00  0.00     0.071 A 
ENDROOT
BRANCH   3  12
ATOM     12  C3  UNK     1      48.286  11.401  -5.872  1.00  0.00    -0.028 A 
ATOM     13  C9  UNK     1      48.096  12.635  -5.250  1.00  0.00     0.012 A 
ATOM     14  C13 UNK     1      48.572  12.842  -3.955  1.00  0.00     0.037 A 
ATOM     15  C15 UNK     1      49.238  11.817  -3.284  1.00  0.00     0.065 A 
ATOM     16  C14 UNK     1      49.428  10.583  -3.908  1.00  0.00     0.037 A 
ATOM     17  C10 UNK     1      48.951  10.375  -5.202  1.00  0.00     0.012 A 
BRANCH  15  18
ATOM     18  O5  UNK     1      49.703  12.019  -2.021  1.00  0.00    -0.361 OA
ATOM     19  H12 UNK     1      49.154  12.694  -1.587  1.00  0.00     0.217 HD
ENDBRANCH  15  18
ENDBRANCH   3  12
BRANCH   8  20
ATOM     20  O3  UNK     1      46.466  11.429 -12.124  1.00  0.00    -0.360 OA
ATOM     21  H10 UNK     1      45.969  12.077 -12.652  1.00  0.00     0.217 HD
ENDBRANCH   8  20
BRANCH  11  22
ATOM     22  O4  UNK     1      42.486  10.271  -9.812  1.00  0.00    -0.361 OA
ATOM     23  H11 UNK     1      42.138  10.429 -10.707  1.00  0.00     0.217 HD
ENDBRANCH  11  22
TORSDOF 4
ENDMDL
MODEL 13
REMARK VINA RESULT:      -5.4      9.766     11.432
REMARK  4 active torsions:
REMARK  status: ('A' for Active; 'I' for Inactive)
REMARK    1  A    between atoms: O3_3  and  C7_12 
REMARK    2  A    between atoms: O4_4  and  C12_17 
REMARK    3  A    between atoms: O5_5  and  C15_20 
REMARK    4  A    between atoms: C1_6  and  C3_8 
ROOT
ATOM      1  O1  UNK     1      47.302  11.861  -6.882  1.00  0.00    -0.340 OA
ATOM      2  O2  UNK     1      50.704  12.728  -9.003  1.00  0.00    -0.292 OA
ATOM      3  C1  UNK     1      47.325  11.742  -8.313  1.00  0.00     0.169 C 
ATOM      4  C2  UNK     1      48.724  11.388  -8.811  1.00  0.00     0.121 C 
ATOM      5  C4  UNK     1      49.376  13.125  -7.092  1.00  0.00     0.076 A 
ATOM      6  C5  UNK     1      49.689  12.459  -8.374  1.00  0.00     0.167 C 
ATOM      7  C6  UNK     1      48.210  12.771  -6.408  1.00  0.00     0.089 A 
ATOM      8  C7  UNK     1      50.256  14.065  -6.550  1.00  0.00     0.085 A 
ATOM      9  C8  UNK     1      47.940  13.335  -5.160  1.00  0.00     0.074 A 
ATOM     10  C11 UNK     1      49.970  14.641  -5.311  1.00  0.00     0.074 A 
ATOM     11  C12 UNK     1      48.818  14.273  -4.615  1.00  0.00     0.071 A 
ENDROOT
BRANCH   3  12
ATOM     12  C3  UNK     1      46.316  10.689  -8.723  1.00  0.00    -0.028 A 
ATOM     13  C9  UNK     1      44.952  10.962  -8.637  1.00  0.00     0.012 A 
ATOM     14  C13 UNK     1      44.023   9.991  -9.014  1.00  0.00     0.037 A 
ATOM     15  C15 UNK     1      44.459   8.750  -9.476  1.00  0.00     0.065 A 
ATOM     16  C14 UNK     1      45.825   8.478  -9.561  1.00  0.00     0.037 A 
ATOM     17  C10 UNK     1      46.753   9.449  -9.185  1.00  0.00     0.012 A 
BRANCH  15  18
ATOM     18  O5  UNK     1      43.553   7.803  -9.844  1.00  0.00    -0.361 OA
ATOM     19  H12 UNK     1      42.660   8.118  -9.623  1.00  0.00     0.217 HD
ENDBRANCH  15  18
ENDBRANCH   3  12
BRANCH   8  20
ATOM     20  O3  UNK     1      51.402  14.449  -7.177  1.00  0.00    -0.360 OA
ATOM     21  H10 UNK     1      51.186  15.038  -7.918  1.00  0.00     0.217 HD
ENDBRANCH   8  20
BRANCH  11  22
ATOM     22  O4  UNK     1      48.548  14.832  -3.403  1.00  0.00    -0.361 OA
ATOM     23  H11 UNK     1      49.156  14.459  -2.741  1.00  0.00     0.217 HD
ENDBRANCH  11  22
TORSDOF 4
ENDMDL
MODEL 14
REMARK VINA RESULT:      -5.4      9.759     11.473
REMARK  4 active torsions:
REMARK  status: ('A' for Active; 'I' for Inactive)
REMARK    1  A    between atoms: O3_3  and  C7_12 
REMARK    2  A    between atoms: O4_4  and  C12_17 
REMARK    3  A    between atoms: O5_5  and  C15_20 
REMARK    4  A    between atoms: C1_6  and  C3_8 
ROOT
ATOM      1  O1  UNK     1      47.300  11.845  -6.893  1.00  0.00    -0.340 OA
ATOM      2  O2  UNK     1      50.700  12.737  -9.008  1.00  0.00    -0.292 OA
ATOM      3  C1  UNK     1      47.326  11.730  -8.324  1.00  0.00     0.169 C 
ATOM      4  C2  UNK     1      48.728  11.384  -8.822  1.00  0.00     0.121 C 
ATOM      5  C4  UNK     1      49.368  13.121  -7.098  1.00  0.00     0.076 A 
ATOM      6  C5  UNK     1      49.686  12.461  -8.380  1.00  0.00     0.167 C 
ATOM      7  C6  UNK     1      48.202  12.759  -6.415  1.00  0.00     0.089 A 
ATOM      8  C7  UNK     1      50.241  14.065  -6.551  1.00  0.00     0.085 A 
ATOM      9  C8  UNK     1      47.928  13.318  -5.167  1.00  0.00     0.074 A 
ATOM     10  C11 UNK     1      49.950  14.636  -5.312  1.00  0.00     0.074 A 
ATOM     11  C12 UNK     1      48.799  14.260  -4.618  1.00  0.00     0.071 A 
ENDROOT
BRANCH   3  12
ATOM     12  C3  UNK     1      46.324  10.671  -8.738  1.00  0.00    -0.028 A 
ATOM     13  C9  UNK     1      46.770   9.439  -9.215  1.00  0.00     0.012 A 
ATOM     14  C13 UNK     1      45.847   8.464  -9.595  1.00  0.00     0.037 A 
ATOM     15  C15 UNK     1      44.480   8.722  -9.498  1.00  0.00     0.065 A 
ATOM     16  C14 UNK     1      44.035   9.955  -9.021  1.00  0.00     0.037 A 
ATOM     17  C10 UNK     1      44.958  10.929  -8.640  1.00  0.00     0.012 A 
BRANCH  15  18
ATOM     18  O5  UNK     1      43.580   7.771  -9.870  1.00  0.00    -0.361 OA
ATOM     19  H12 UNK     1      43.874   7.368 -10.704  1.00  0.00     0.217 HD
ENDBRANCH  15  18
ENDBRANCH   3  12
BRANCH   8  20
ATOM     20  O3  UNK     1      51.386  14.457  -7.176  1.00  0.00    -0.360 OA
ATOM     21  H10 UNK     1      51.473  15.423  -7.120  1.00  0.00     0.217 HD
ENDBRANCH   8  20
BRANCH  11  22
ATOM     22  O4  UNK     1      48.525  14.814  -3.405  1.00  0.00    -0.361 OA
ATOM     23  H11 UNK     1      49.358  15.101  -2.993  1.00  0.00     0.217 HD
ENDBRANCH  11  22
TORSDOF 4
ENDMDL
MODEL 15
REMARK VINA RESULT:      -5.4     10.064     12.235
REMARK  4 active torsions:
REMARK  status: ('A' for Active; 'I' for Inactive)
REMARK    1  A    between atoms: O3_3  and  C7_12 
REMARK    2  A    between atoms: O4_4  and  C12_17 
REMARK    3  A    between atoms: O5_5  and  C15_20 
REMARK    4  A    between atoms: C1_6  and  C3_8 
ROOT
ATOM      1  O1  UNK     1      47.753  11.352  -5.901  1.00  0.00    -0.340 OA
ATOM      2  O2  UNK     1      50.714   8.675  -6.843  1.00  0.00    -0.292 OA
ATOM      3  C1  UNK     1      48.138  11.136  -7.267  1.00  0.00     0.169 C 
ATOM      4  C2  UNK     1      48.644   9.709  -7.474  1.00  0.00     0.121 C 
ATOM      5  C4  UNK     1      49.809  10.197  -5.282  1.00  0.00     0.076 A 
ATOM      6  C5  UNK     1      49.823   9.469  -6.568  1.00  0.00     0.167 C 
ATOM      7  C6  UNK     1      48.761  11.082  -5.013  1.00  0.00     0.089 A 
ATOM      8  C7  UNK     1      50.806   9.972  -4.330  1.00  0.00     0.085 A 
ATOM      9  C8  UNK     1      48.692  11.718  -3.773  1.00  0.00     0.074 A 
ATOM     10  C11 UNK     1      50.743  10.628  -3.099  1.00  0.00     0.074 A 
ATOM     11  C12 UNK     1      49.686  11.494  -2.819  1.00  0.00     0.071 A 
ENDROOT
BRANCH   3  12
ATOM     12  C3  UNK     1      46.945  11.426  -8.153  1.00  0.00    -0.028 A 
ATOM     13  C9  UNK     1      47.137  11.743  -9.498  1.00  0.00     0.012 A 
ATOM     14  C13 UNK     1      46.037  12.010 -10.314  1.00  0.00     0.037 A 
ATOM     15  C15 UNK     1      44.748  11.960  -9.786  1.00  0.00     0.065 A 
ATOM     16  C14 UNK     1      44.557  11.643  -8.441  1.00  0.00     0.037 A 
ATOM     17  C10 UNK     1      45.656  11.375  -7.625  1.00  0.00     0.012 A 
BRANCH  15  18
ATOM     18  O5  UNK     1      43.676  12.221 -10.583  1.00  0.00    -0.361 OA
ATOM     19  H12 UNK     1      43.210  11.388 -10.767  1.00  0.00     0.217 HD
ENDBRANCH  15  18
ENDBRANCH   3  12
BRANCH   8  20
ATOM     20  O3  UNK     1      51.850   9.125  -4.543  1.00  0.00    -0.360 OA
ATOM     21  H10 UNK     1      51.516   8.268  -4.854  1.00  0.00     0.217 HD
ENDBRANCH   8  20
BRANCH  11  22
ATOM     22  O4  UNK     1      49.625  12.125  -1.614  1.00  0.00    -0.361 OA
ATOM     23  H11 UNK     1      49.051  12.906  -1.695  1.00  0.00     0.217 HD
ENDBRANCH  11  22
TORSDOF 4
ENDMDL
MODEL 16
REMARK VINA RESULT:      -5.3     11.212     13.444
REMARK  4 active torsions:
REMARK  status: ('A' for Active; 'I' for Inactive)
REMARK    1  A    between atoms: O3_3  and  C7_12 
REMARK    2  A    between atoms: O4_4  and  C12_17 
REMARK    3  A    between atoms: O5_5  and  C15_20 
REMARK    4  A    between atoms: C1_6  and  C3_8 
ROOT
ATOM      1  O1  UNK     1      52.096  11.451  -2.544  1.00  0.00    -0.340 OA
ATOM      2  O2  UNK     1      50.945  11.500   1.393  1.00  0.00    -0.292 OA
ATOM      3  C1  UNK     1      50.856  10.855  -2.135  1.00  0.00     0.169 C 
ATOM      4  C2  UNK     1      50.282  11.568  -0.911  1.00  0.00     0.121 C 
ATOM      5  C4  UNK     1      52.703  11.476  -0.182  1.00  0.00     0.076 A 
ATOM      6  C5  UNK     1      51.280  11.491   0.215  1.00  0.00     0.167 C 
ATOM      7  C6  UNK     1      53.031  11.480  -1.541  1.00  0.00     0.089 A 
ATOM      8  C7  UNK     1      53.710  11.502   0.786  1.00  0.00     0.085 A 
ATOM      9  C8  UNK     1      54.368  11.544  -1.932  1.00  0.00     0.074 A 
ATOM     10  C11 UNK     1      55.047  11.545   0.389  1.00  0.00     0.074 A 
ATOM     11  C12 UNK     1      55.376  11.572  -0.967  1.00  0.00     0.071 A 
ENDROOT
BRANCH   3  12
ATOM     12  C3  UNK     1      49.890  10.911  -3.301  1.00  0.00    -0.028 A 
ATOM     13  C9  UNK     1      48.905  11.897  -3.342  1.00  0.00     0.012 A 
ATOM     14  C13 UNK     1      48.016  11.948  -4.416  1.00  0.00     0.037 A 
ATOM     15  C15 UNK     1      48.113  11.015  -5.447  1.00  0.00     0.065 A 
ATOM     16  C14 UNK     1      49.099  10.028  -5.405  1.00  0.00     0.037 A 
ATOM     17  C10 UNK     1      49.988   9.978  -4.331  1.00  0.00     0.012 A 
BRANCH  15  18
ATOM     18  O5  UNK     1      47.245  11.065  -6.495  1.00  0.00    -0.361 OA
ATOM     19  H12 UNK     1      47.163  10.175  -6.879  1.00  0.00     0.217 HD
ENDBRANCH  15  18
ENDBRANCH   3  12
BRANCH   8  20
ATOM     20  O3  UNK     1      53.446  11.495   2.122  1.00  0.00    -0.360 OA
ATOM     21  H10 UNK     1      52.590  11.925   2.288  1.00  0.00     0.217 HD
ENDBRANCH   8  20
BRANCH  11  22
ATOM     22  O4  UNK     1      56.682  11.622  -1.349  1.00  0.00    -0.361 OA
ATOM     23  H11 UNK     1      57.227  11.855  -0.577  1.00  0.00     0.217 HD
ENDBRANCH  11  22
TORSDOF 4
ENDMDL
MODEL 17
REMARK VINA RESULT:      -5.3     10.161     12.557
REMARK  4 active torsions:
REMARK  status: ('A' for Active; 'I' for Inactive)
REMARK    1  A    between atoms: O3_3  and  C7_12 
REMARK    2  A    between atoms: O4_4  and  C12_17 
REMARK    3  A    between atoms: O5_5  and  C15_20 
REMARK    4  A    between atoms: C1_6  and  C3_8 
ROOT
ATOM      1  O1  UNK     1      46.960  11.017  -7.833  1.00  0.00    -0.340 OA
ATOM      2  O2  UNK     1      49.926  10.735 -10.652  1.00  0.00    -0.292 OA
ATOM      3  C1  UNK     1      48.318  11.351  -7.505  1.00  0.00     0.169 C 
ATOM      4  C2  UNK     1      49.062  11.880  -8.729  1.00  0.00     0.121 C 
ATOM      5  C4  UNK     1      47.850   9.957  -9.840  1.00  0.00     0.076 A 
ATOM      6  C5  UNK     1      49.043  10.830  -9.810  1.00  0.00     0.167 C 
ATOM      7  C6  UNK     1      46.865  10.116  -8.861  1.00  0.00     0.089 A 
ATOM      8  C7  UNK     1      47.688   9.014 -10.858  1.00  0.00     0.085 A 
ATOM      9  C8  UNK     1      45.699   9.353  -8.921  1.00  0.00     0.074 A 
ATOM     10  C11 UNK     1      46.529   8.239 -10.901  1.00  0.00     0.074 A 
ATOM     11  C12 UNK     1      45.533   8.411  -9.938  1.00  0.00     0.071 A 
ENDROOT
BRANCH   3  12
ATOM     12  C3  UNK     1      48.303  12.375  -6.390  1.00  0.00    -0.028 A 
ATOM     13  C9  UNK     1      47.806  12.029  -5.133  1.00  0.00     0.012 A 
ATOM     14  C13 UNK     1      47.793  12.973  -4.106  1.00  0.00     0.037 A 
ATOM     15  C15 UNK     1      48.277  14.261  -4.335  1.00  0.00     0.065 A 
ATOM     16  C14 UNK     1      48.773  14.606  -5.593  1.00  0.00     0.037 A 
ATOM     17  C10 UNK     1      48.787  13.662  -6.620  1.00  0.00     0.012 A 
BRANCH  15  18
ATOM     18  O5  UNK     1      48.263  15.181  -3.333  1.00  0.00    -0.361 OA
ATOM     19  H12 UNK     1      47.395  15.159  -2.895  1.00  0.00     0.217 HD
ENDBRANCH  15  18
ENDBRANCH   3  12
BRANCH   8  20
ATOM     20  O3  UNK     1      48.619   8.816 -11.833  1.00  0.00    -0.360 OA
ATOM     21  H10 UNK     1      48.962   7.909 -11.776  1.00  0.00     0.217 HD
ENDBRANCH   8  20
BRANCH  11  22
ATOM     22  O4  UNK     1      44.400   7.658  -9.990  1.00  0.00    -0.361 OA
ATOM     23  H11 UNK     1      44.236   7.398 -10.913  1.00  0.00     0.217 HD
ENDBRANCH  11  22
TORSDOF 4
ENDMDL
MODEL 18
REMARK VINA RESULT:      -5.1     10.491     12.071
REMARK  4 active torsions:
REMARK  status: ('A' for Active; 'I' for Inactive)
REMARK    1  A    between atoms: O3_3  and  C7_12 
REMARK    2  A    between atoms: O4_4  and  C12_17 
REMARK    3  A    between atoms: O5_5  and  C15_20 
REMARK    4  A    between atoms: C1_6  and  C3_8 
ROOT
ATOM      1  O1  UNK     1      47.957  10.965  -6.499  1.00  0.00    -0.340 OA
ATOM      2  O2  UNK     1      50.717  13.946  -7.065  1.00  0.00    -0.292 OA
ATOM      3  C1  UNK     1      47.650  12.103  -7.319  1.00  0.00     0.169 C 
ATOM      4  C2  UNK     1      48.910  12.660  -7.978  1.00  0.00     0.121 C 
ATOM      5  C4  UNK     1      49.855  12.250  -5.668  1.00  0.00     0.076 A 
ATOM      6  C5  UNK     1      49.893  13.055  -6.906  1.00  0.00     0.167 C 
ATOM      7  C6  UNK     1      48.902  11.235  -5.544  1.00  0.00     0.089 A 
ATOM      8  C7  UNK     1      50.786  12.472  -4.650  1.00  0.00     0.085 A 
ATOM      9  C8  UNK     1      48.903  10.417  -4.414  1.00  0.00     0.074 A 
ATOM     10  C11 UNK     1      50.769  11.664  -3.512  1.00  0.00     0.074 A 
ATOM     11  C12 UNK     1      49.833  10.635  -3.396  1.00  0.00     0.071 A 
ENDROOT
BRANCH   3  12
ATOM     12  C3  UNK     1      46.631  11.683  -8.358  1.00  0.00    -0.028 A 
ATOM     13  C9  UNK     1      46.989  11.637  -9.705  1.00  0.00     0.012 A 
ATOM     14  C13 UNK     1      46.050  11.250 -10.662  1.00  0.00     0.037 A 
ATOM     15  C15 UNK     1      44.755  10.911 -10.272  1.00  0.00     0.065 A 
ATOM     16  C14 UNK     1      44.398  10.958  -8.924  1.00  0.00     0.037 A 
ATOM     17  C10 UNK     1      45.337  11.343  -7.967  1.00  0.00     0.012 A 
BRANCH  15  18
ATOM     18  O5  UNK     1      43.839  10.534 -11.205  1.00  0.00    -0.361 OA
ATOM     19  H12 UNK     1      43.074  10.137 -10.755  1.00  0.00     0.217 HD
ENDBRANCH  15  18
ENDBRANCH   3  12
BRANCH   8  20
ATOM     20  O3  UNK     1      51.732  13.450  -4.718  1.00  0.00    -0.360 OA
ATOM     21  H10 UNK     1      52.033  13.673  -3.821  1.00  0.00     0.217 HD
ENDBRANCH   8  20
BRANCH  11  22
ATOM     22  O4  UNK     1      49.826   9.844  -2.288  1.00  0.00    -0.361 OA
ATOM     23  H11 UNK     1      50.695   9.902  -1.853  1.00  0.00     0.217 HD
ENDBRANCH  11  22
TORSDOF 4
ENDMDL
