MODEL 1
REMARK VINA RESULT:      -7.4      0.000      0.000
REMARK  4 active torsions:
REMARK  status: ('A' for Active; 'I' for Inactive)
REMARK    1  A    between atoms: O3_3  and  C7_12 
REMARK    2  A    between atoms: O4_4  and  C12_17 
REMARK    3  A    between atoms: O5_5  and  C15_20 
REMARK    4  A    between atoms: C1_6  and  C3_8 
ROOT
ATOM      1  O1  UNK     1      39.870  15.460   0.007  1.00  0.00    -0.340 OA
ATOM      2  O2  UNK     1      41.313  16.353  -3.727  1.00  0.00    -0.292 OA
ATOM      3  C1  UNK     1      40.073  14.426  -0.967  1.00  0.00     0.169 C 
ATOM      4  C2  UNK     1      41.215  14.783  -1.917  1.00  0.00     0.121 C 
ATOM      5  C4  UNK     1      40.086  17.045  -1.833  1.00  0.00     0.076 A 
ATOM      6  C5  UNK     1      40.891  16.080  -2.611  1.00  0.00     0.167 C 
ATOM      7  C6  UNK     1      39.640  16.688  -0.557  1.00  0.00     0.089 A 
ATOM      8  C7  UNK     1      39.811  18.315  -2.347  1.00  0.00     0.085 A 
ATOM      9  C8  UNK     1      38.946  17.616   0.220  1.00  0.00     0.074 A 
ATOM     10  C11 UNK     1      39.098  19.232  -1.574  1.00  0.00     0.074 A 
ATOM     11  C12 UNK     1      38.671  18.886  -0.291  1.00  0.00     0.071 A 
ENDROOT
BRANCH   3  12
ATOM     12  C3  UNK     1      40.355  13.129  -0.237  1.00  0.00    -0.028 A 
ATOM     13  C9  UNK     1      40.932  12.058  -0.919  1.00  0.00     0.012 A 
ATOM     14  C13 UNK     1      41.192  10.863  -0.247  1.00  0.00     0.037 A 
ATOM     15  C15 UNK     1      40.875  10.740   1.105  1.00  0.00     0.065 A 
ATOM     16  C14 UNK     1      40.297  11.813   1.787  1.00  0.00     0.037 A 
ATOM     17  C10 UNK     1      40.038  13.007   1.114  1.00  0.00     0.012 A 
BRANCH  15  18
ATOM     18  O5  UNK     1      41.128   9.575   1.761  1.00  0.00    -0.361 OA
ATOM     19  H12 UNK     1      41.896   9.143   1.351  1.00  0.00     0.217 HD
ENDBRANCH  15  18
ENDBRANCH   3  12
BRANCH   8  20
ATOM     20  O3  UNK     1      40.218  18.712  -3.585  1.00  0.00    -0.360 OA
ATOM     21  H10 UNK     1      40.353  17.932  -4.149  1.00  0.00     0.217 HD
ENDBRANCH   8  20
BRANCH  11  22
ATOM     22  O4  UNK     1      37.983  19.787   0.463  1.00  0.00    -0.361 OA
ATOM     23  H11 UNK     1      37.853  20.599  -0.057  1.00  0.00     0.217 HD
ENDBRANCH  11  22
TORSDOF 4
ENDMDL
MODEL 2
REMARK VINA RESULT:      -7.4      2.453      7.134
REMARK  4 active torsions:
REMARK  status: ('A' for Active; 'I' for Inactive)
REMARK    1  A    between atoms: O3_3  and  C7_12 
REMARK    2  A    between atoms: O4_4  and  C12_17 
REMARK    3  A    between atoms: O5_5  and  C15_20 
REMARK    4  A    between atoms: C1_6  and  C3_8 
ROOT
ATOM      1  O1  UNK     1      40.404  17.064  -0.997  1.00  0.00    -0.340 OA
ATOM      2  O2  UNK     1      36.890  14.984  -0.612  1.00  0.00    -0.292 OA
ATOM      3  C1  UNK     1      39.143  17.701  -1.253  1.00  0.00     0.169 C 
ATOM      4  C2  UNK     1      38.034  17.082  -0.405  1.00  0.00     0.121 C 
ATOM      5  C4  UNK     1      39.199  14.947  -1.100  1.00  0.00     0.076 A 
ATOM      6  C5  UNK     1      37.936  15.611  -0.720  1.00  0.00     0.167 C 
ATOM      7  C6  UNK     1      40.368  15.708  -1.195  1.00  0.00     0.089 A 
ATOM      8  C7  UNK     1      39.236  13.567  -1.320  1.00  0.00     0.085 A 
ATOM      9  C8  UNK     1      41.582  15.083  -1.478  1.00  0.00     0.074 A 
ATOM     10  C11 UNK     1      40.450  12.950  -1.623  1.00  0.00     0.074 A 
ATOM     11  C12 UNK     1      41.622  13.705  -1.696  1.00  0.00     0.071 A 
ENDROOT
BRANCH   3  12
ATOM     12  C3  UNK     1      39.287  19.181  -0.967  1.00  0.00    -0.028 A 
ATOM     13  C9  UNK     1      38.620  19.748   0.118  1.00  0.00     0.012 A 
ATOM     14  C13 UNK     1      38.753  21.112   0.382  1.00  0.00     0.037 A 
ATOM     15  C15 UNK     1      39.552  21.907  -0.439  1.00  0.00     0.065 A 
ATOM     16  C14 UNK     1      40.219  21.338  -1.526  1.00  0.00     0.037 A 
ATOM     17  C10 UNK     1      40.086  19.975  -1.788  1.00  0.00     0.012 A 
BRANCH  15  18
ATOM     18  O5  UNK     1      39.682  23.237  -0.183  1.00  0.00    -0.361 OA
ATOM     19  H12 UNK     1      38.820  23.589   0.099  1.00  0.00     0.217 HD
ENDBRANCH  15  18
ENDBRANCH   3  12
BRANCH   8  20
ATOM     20  O3  UNK     1      38.127  12.780  -1.244  1.00  0.00    -0.360 OA
ATOM     21  H10 UNK     1      37.956  12.375  -2.111  1.00  0.00     0.217 HD
ENDBRANCH   8  20
BRANCH  11  22
ATOM     22  O4  UNK     1      42.806  13.096  -1.984  1.00  0.00    -0.361 OA
ATOM     23  H11 UNK     1      43.356  13.082  -1.182  1.00  0.00     0.217 HD
ENDBRANCH  11  22
TORSDOF 4
ENDMDL
MODEL 3
REMARK VINA RESULT:      -7.1      1.333      3.025
REMARK  4 active torsions:
REMARK  status: ('A' for Active; 'I' for Inactive)
REMARK    1  A    between atoms: O3_3  and  C7_12 
REMARK    2  A    between atoms: O4_4  and  C12_17 
REMARK    3  A    between atoms: O5_5  and  C15_20 
REMARK    4  A    between atoms: C1_6  and  C3_8 
ROOT
ATOM      1  O1  UNK     1      40.493  15.197  -2.074  1.00  0.00    -0.340 OA
ATOM      2  O2  UNK     1      38.827  18.131   0.258  1.00  0.00    -0.292 OA
ATOM      3  C1  UNK     1      40.546  15.115  -0.642  1.00  0.00     0.169 C 
ATOM      4  C2  UNK     1      39.340  15.803  -0.007  1.00  0.00     0.121 C 
ATOM      5  C4  UNK     1      39.862  17.534  -1.777  1.00  0.00     0.076 A 
ATOM      6  C5  UNK     1      39.318  17.248  -0.433  1.00  0.00     0.167 C 
ATOM      7  C6  UNK     1      40.399  16.486  -2.531  1.00  0.00     0.089 A 
ATOM      8  C7  UNK     1      39.801  18.825  -2.307  1.00  0.00     0.085 A 
ATOM      9  C8  UNK     1      40.845  16.725  -3.831  1.00  0.00     0.074 A 
ATOM     10  C11 UNK     1      40.269  19.062  -3.600  1.00  0.00     0.074 A 
ATOM     11  C12 UNK     1      40.785  18.014  -4.363  1.00  0.00     0.071 A 
ENDROOT
BRANCH   3  12
ATOM     12  C3  UNK     1      40.610  13.653  -0.249  1.00  0.00    -0.028 A 
ATOM     13  C9  UNK     1      40.148  13.249   1.004  1.00  0.00     0.012 A 
ATOM     14  C13 UNK     1      40.207  11.902   1.366  1.00  0.00     0.037 A 
ATOM     15  C15 UNK     1      40.726  10.962   0.476  1.00  0.00     0.065 A 
ATOM     16  C14 UNK     1      41.187  11.368  -0.777  1.00  0.00     0.037 A 
ATOM     17  C10 UNK     1      41.128  12.714  -1.139  1.00  0.00     0.012 A 
BRANCH  15  18
ATOM     18  O5  UNK     1      40.783   9.649   0.829  1.00  0.00    -0.361 OA
ATOM     19  H12 UNK     1      40.872   9.586   1.796  1.00  0.00     0.217 HD
ENDBRANCH  15  18
ENDBRANCH   3  12
BRANCH   8  20
ATOM     20  O3  UNK     1      39.293  19.882  -1.614  1.00  0.00    -0.360 OA
ATOM     21  H10 UNK     1      39.126  19.618  -0.694  1.00  0.00     0.217 HD
ENDBRANCH   8  20
BRANCH  11  22
ATOM     22  O4  UNK     1      41.232  18.249  -5.627  1.00  0.00    -0.361 OA
ATOM     23  H11 UNK     1      42.201  18.339  -5.607  1.00  0.00     0.217 HD
ENDBRANCH  11  22
TORSDOF 4
ENDMDL
MODEL 4
REMARK VINA RESULT:      -6.4      1.562      6.686
REMARK  4 active torsions:
REMARK  status: ('A' for Active; 'I' for Inactive)
REMARK    1  A    between atoms: O3_3  and  C7_12 
REMARK    2  A    between atoms: O4_4  and  C12_17 
REMARK    3  A    between atoms: O5_5  and  C15_20 
REMARK    4  A    between atoms: C1_6  and  C3_8 
ROOT
ATOM      1  O1  UNK     1      40.149  14.013   0.668  1.00  0.00    -0.340 OA
ATOM      2  O2  UNK     1      41.607  10.601  -1.080  1.00  0.00    -0.292 OA
ATOM      3  C1  UNK     1      40.987  14.085  -0.496  1.00  0.00     0.169 C 
ATOM      4  C2  UNK     1      40.816  12.846  -1.372  1.00  0.00     0.121 C 
ATOM      5  C4  UNK     1      40.880  11.697   0.880  1.00  0.00     0.076 A 
ATOM      6  C5  UNK     1      41.167  11.622  -0.567  1.00  0.00     0.167 C 
ATOM      7  C6  UNK     1      40.366  12.883   1.412  1.00  0.00     0.089 A 
ATOM      8  C7  UNK     1      41.080  10.584   1.701  1.00  0.00     0.085 A 
ATOM      9  C8  UNK     1      40.018  12.944   2.762  1.00  0.00     0.074 A 
ATOM     10  C11 UNK     1      40.750  10.657   3.054  1.00  0.00     0.074 A 
ATOM     11  C12 UNK     1      40.215  11.833   3.584  1.00  0.00     0.071 A 
ENDROOT
BRANCH   3  12
ATOM     12  C3  UNK     1      40.638  15.346  -1.260  1.00  0.00    -0.028 A 
ATOM     13  C9  UNK     1      41.017  15.478  -2.595  1.00  0.00     0.012 A 
ATOM     14  C13 UNK     1      40.695  16.640  -3.299  1.00  0.00     0.037 A 
ATOM     15  C15 UNK     1      39.996  17.667  -2.667  1.00  0.00     0.065 A 
ATOM     16  C14 UNK     1      39.617  17.534  -1.330  1.00  0.00     0.037 A 
ATOM     17  C10 UNK     1      39.938  16.372  -0.627  1.00  0.00     0.012 A 
BRANCH  15  18
ATOM     18  O5  UNK     1      39.682  18.800  -3.353  1.00  0.00    -0.361 OA
ATOM     19  H12 UNK     1      40.400  18.998  -3.978  1.00  0.00     0.217 HD
ENDBRANCH  15  18
ENDBRANCH   3  12
BRANCH   8  20
ATOM     20  O3  UNK     1      41.582   9.406   1.235  1.00  0.00    -0.360 OA
ATOM     21  H10 UNK     1      41.230   9.231   0.347  1.00  0.00     0.217 HD
ENDBRANCH   8  20
BRANCH  11  22
ATOM     22  O4  UNK     1      39.887  11.897   4.903  1.00  0.00    -0.361 OA
ATOM     23  H11 UNK     1      40.698  12.031   5.424  1.00  0.00     0.217 HD
ENDBRANCH  11  22
TORSDOF 4
ENDMDL
MODEL 5
REMARK VINA RESULT:      -6.3      1.513      6.685
REMARK  4 active torsions:
REMARK  status: ('A' for Active; 'I' for Inactive)
REMARK    1  A    between atoms: O3_3  and  C7_12 
REMARK    2  A    between atoms: O4_4  and  C12_17 
REMARK    3  A    between atoms: O5_5  and  C15_20 
REMARK    4  A    between atoms: C1_6  and  C3_8 
ROOT
ATOM      1  O1  UNK     1      39.674  14.190   0.197  1.00  0.00    -0.340 OA
ATOM      2  O2  UNK     1      42.160  12.298  -2.462  1.00  0.00    -0.292 OA
ATOM      3  C1  UNK     1      40.614  14.939  -0.589  1.00  0.00     0.169 C 
ATOM      4  C2  UNK     1      40.877  14.254  -1.929  1.00  0.00     0.121 C 
ATOM      5  C4  UNK     1      40.927  12.201  -0.451  1.00  0.00     0.076 A 
ATOM      6  C5  UNK     1      41.414  12.868  -1.676  1.00  0.00     0.167 C 
ATOM      7  C6  UNK     1      40.066  12.893   0.406  1.00  0.00     0.089 A 
ATOM      8  C7  UNK     1      41.288  10.880  -0.172  1.00  0.00     0.085 A 
ATOM      9  C8  UNK     1      39.538  12.251   1.525  1.00  0.00     0.074 A 
ATOM     10  C11 UNK     1      40.773  10.250   0.961  1.00  0.00     0.074 A 
ATOM     11  C12 UNK     1      39.895  10.931   1.805  1.00  0.00     0.071 A 
ENDROOT
BRANCH   3  12
ATOM     12  C3  UNK     1      40.066  16.336  -0.789  1.00  0.00    -0.028 A 
ATOM     13  C9  UNK     1      39.344  16.953   0.232  1.00  0.00     0.012 A 
ATOM     14  C13 UNK     1      38.839  18.241   0.048  1.00  0.00     0.037 A 
ATOM     15  C15 UNK     1      39.055  18.910  -1.156  1.00  0.00     0.065 A 
ATOM     16  C14 UNK     1      39.778  18.291  -2.178  1.00  0.00     0.037 A 
ATOM     17  C10 UNK     1      40.283  17.004  -1.993  1.00  0.00     0.012 A 
BRANCH  15  18
ATOM     18  O5  UNK     1      38.562  20.165  -1.336  1.00  0.00    -0.361 OA
ATOM     19  H12 UNK     1      38.863  20.730  -0.604  1.00  0.00     0.217 HD
ENDBRANCH  15  18
ENDBRANCH   3  12
BRANCH   8  20
ATOM     20  O3  UNK     1      42.127  10.163  -0.970  1.00  0.00    -0.360 OA
ATOM     21  H10 UNK     1      41.799   9.251  -1.051  1.00  0.00     0.217 HD
ENDBRANCH   8  20
BRANCH  11  22
ATOM     22  O4  UNK     1      39.389  10.308   2.905  1.00  0.00    -0.361 OA
ATOM     23  H11 UNK     1      39.179  10.978   3.578  1.00  0.00     0.217 HD
ENDBRANCH  11  22
TORSDOF 4
ENDMDL
MODEL 6
REMARK VINA RESULT:      -6.1      1.614      6.459
REMARK  4 active torsions:
REMARK  status: ('A' for Active; 'I' for Inactive)
REMARK    1  A    between atoms: O3_3  and  C7_12 
REMARK    2  A    between atoms: O4_4  and  C12_17 
REMARK    3  A    between atoms: O5_5  and  C15_20 
REMARK    4  A    between atoms: C1_6  and  C3_8 
ROOT
ATOM      1  O1  UNK     1      39.344  15.193  -0.362  1.00  0.00    -0.340 OA
ATOM      2  O2  UNK     1      42.520  14.524  -2.871  1.00  0.00    -0.292 OA
ATOM      3  C1  UNK     1      40.274  16.245  -0.666  1.00  0.00     0.169 C 
ATOM      4  C2  UNK     1      40.869  16.065  -2.061  1.00  0.00     0.121 C 
ATOM      5  C4  UNK     1      40.991  13.656  -1.295  1.00  0.00     0.076 A 
ATOM      6  C5  UNK     1      41.568  14.731  -2.129  1.00  0.00     0.167 C 
ATOM      7  C6  UNK     1      39.897  13.944  -0.475  1.00  0.00     0.089 A 
ATOM      8  C7  UNK     1      41.505  12.359  -1.357  1.00  0.00     0.085 A 
ATOM      9  C8  UNK     1      39.293  12.923   0.259  1.00  0.00     0.074 A 
ATOM     10  C11 UNK     1      40.911  11.346  -0.605  1.00  0.00     0.074 A 
ATOM     11  C12 UNK     1      39.803  11.625   0.198  1.00  0.00     0.071 A 
ENDROOT
BRANCH   3  12
ATOM     12  C3  UNK     1      39.551  17.571  -0.548  1.00  0.00    -0.028 A 
ATOM     13  C9  UNK     1      39.756  18.563  -1.507  1.00  0.00     0.012 A 
ATOM     14  C13 UNK     1      39.091  19.784  -1.399  1.00  0.00     0.037 A 
ATOM     15  C15 UNK     1      38.222  20.013  -0.333  1.00  0.00     0.065 A 
ATOM     16  C14 UNK     1      38.018  19.020   0.627  1.00  0.00     0.037 A 
ATOM     17  C10 UNK     1      38.682  17.799   0.517  1.00  0.00     0.012 A 
BRANCH  15  18
ATOM     18  O5  UNK     1      37.573  21.205  -0.226  1.00  0.00    -0.361 OA
ATOM     19  H12 UNK     1      37.324  21.509  -1.116  1.00  0.00     0.217 HD
ENDBRANCH  15  18
ENDBRANCH   3  12
BRANCH   8  20
ATOM     20  O3  UNK     1      42.572  12.026  -2.136  1.00  0.00    -0.360 OA
ATOM     21  H10 UNK     1      42.286  11.419  -2.838  1.00  0.00     0.217 HD
ENDBRANCH   8  20
BRANCH  11  22
ATOM     22  O4  UNK     1      39.222  10.631   0.924  1.00  0.00    -0.361 OA
ATOM     23  H11 UNK     1      38.626  10.124   0.345  1.00  0.00     0.217 HD
ENDBRANCH  11  22
TORSDOF 4
ENDMDL
MODEL 7
REMARK VINA RESULT:      -6.0     22.392     26.259
REMARK  4 active torsions:
REMARK  status: ('A' for Active; 'I' for Inactive)
REMARK    1  A    between atoms: O3_3  and  C7_12 
REMARK    2  A    between atoms: O4_4  and  C12_17 
REMARK    3  A    between atoms: O5_5  and  C15_20 
REMARK    4  A    between atoms: C1_6  and  C3_8 
ROOT
ATOM      1  O1  UNK     1      38.968  -9.875   4.840  1.00  0.00    -0.340 OA
ATOM      2  O2  UNK     1      36.402 -10.687   1.744  1.00  0.00    -0.292 OA
ATOM      3  C1  UNK     1      38.332 -11.158   4.731  1.00  0.00     0.169 C 
ATOM      4  C2  UNK     1      38.058 -11.512   3.271  1.00  0.00     0.121 C 
ATOM      5  C4  UNK     1      37.345  -9.086   3.201  1.00  0.00     0.076 A 
ATOM      6  C5  UNK     1      37.174 -10.452   2.665  1.00  0.00     0.167 C 
ATOM      7  C6  UNK     1      38.249  -8.871   4.245  1.00  0.00     0.089 A 
ATOM      8  C7  UNK     1      36.643  -8.014   2.644  1.00  0.00     0.085 A 
ATOM      9  C8  UNK     1      38.478  -7.576   4.709  1.00  0.00     0.074 A 
ATOM     10  C11 UNK     1      36.860  -6.723   3.127  1.00  0.00     0.074 A 
ATOM     11  C12 UNK     1      37.780  -6.503   4.153  1.00  0.00     0.071 A 
ENDROOT
BRANCH   3  12
ATOM     12  C3  UNK     1      39.225 -12.192   5.385  1.00  0.00    -0.028 A 
ATOM     13  C9  UNK     1      39.535 -12.087   6.741  1.00  0.00     0.012 A 
ATOM     14  C13 UNK     1      40.357 -13.040   7.343  1.00  0.00     0.037 A 
ATOM     15  C15 UNK     1      40.869 -14.096   6.591  1.00  0.00     0.065 A 
ATOM     16  C14 UNK     1      40.558 -14.200   5.234  1.00  0.00     0.037 A 
ATOM     17  C10 UNK     1      39.735 -13.248   4.632  1.00  0.00     0.012 A 
BRANCH  15  18
ATOM     18  O5  UNK     1      41.671 -15.025   7.178  1.00  0.00    -0.361 OA
ATOM     19  H12 UNK     1      41.610 -14.929   8.144  1.00  0.00     0.217 HD
ENDBRANCH  15  18
ENDBRANCH   3  12
BRANCH   8  20
ATOM     20  O3  UNK     1      35.747  -8.168   1.630  1.00  0.00    -0.360 OA
ATOM     21  H10 UNK     1      35.340  -7.311   1.422  1.00  0.00     0.217 HD
ENDBRANCH   8  20
BRANCH  11  22
ATOM     22  O4  UNK     1      37.994  -5.240   4.615  1.00  0.00    -0.361 OA
ATOM     23  H11 UNK     1      37.430  -5.089   5.394  1.00  0.00     0.217 HD
ENDBRANCH  11  22
TORSDOF 4
ENDMDL
MODEL 8
REMARK VINA RESULT:      -6.0     15.978     17.863
REMARK  4 active torsions:
REMARK  status: ('A' for Active; 'I' for Inactive)
REMARK    1  A    between atoms: O3_3  and  C7_12 
REMARK    2  A    between atoms: O4_4  and  C12_17 
REMARK    3  A    between atoms: O5_5  and  C15_20 
REMARK    4  A    between atoms: C1_6  and  C3_8 
ROOT
ATOM      1  O1  UNK     1      44.217   1.759   7.592  1.00  0.00    -0.340 OA
ATOM      2  O2  UNK     1      45.707   0.850  11.304  1.00  0.00    -0.292 OA
ATOM      3  C1  UNK     1      43.534   0.832   8.450  1.00  0.00     0.169 C 
ATOM      4  C2  UNK     1      43.773   1.168   9.920  1.00  0.00     0.121 C 
ATOM      5  C4  UNK     1      46.134   1.507   9.077  1.00  0.00     0.076 A 
ATOM      6  C5  UNK     1      45.253   1.125  10.200  1.00  0.00     0.167 C 
ATOM      7  C6  UNK     1      45.563   1.824   7.841  1.00  0.00     0.089 A 
ATOM      8  C7  UNK     1      47.517   1.592   9.259  1.00  0.00     0.085 A 
ATOM      9  C8  UNK     1      46.375   2.262   6.794  1.00  0.00     0.074 A 
ATOM     10  C11 UNK     1      48.326   2.010   8.201  1.00  0.00     0.074 A 
ATOM     11  C12 UNK     1      47.756   2.350   6.973  1.00  0.00     0.071 A 
ENDROOT
BRANCH   3  12
ATOM     12  C3  UNK     1      42.057   0.869   8.115  1.00  0.00    -0.028 A 
ATOM     13  C9  UNK     1      41.267  -0.260   8.329  1.00  0.00     0.012 A 
ATOM     14  C13 UNK     1      39.906  -0.225   8.021  1.00  0.00     0.037 A 
ATOM     15  C15 UNK     1      39.338   0.936   7.499  1.00  0.00     0.065 A 
ATOM     16  C14 UNK     1      40.130   2.065   7.285  1.00  0.00     0.037 A 
ATOM     17  C10 UNK     1      41.490   2.031   7.594  1.00  0.00     0.012 A 
BRANCH  15  18
ATOM     18  O5  UNK     1      38.011   0.969   7.198  1.00  0.00    -0.361 OA
ATOM     19  H12 UNK     1      37.908   1.148   6.248  1.00  0.00     0.217 HD
ENDBRANCH  15  18
ENDBRANCH   3  12
BRANCH   8  20
ATOM     20  O3  UNK     1      48.125   1.290  10.439  1.00  0.00    -0.360 OA
ATOM     21  H10 UNK     1      47.505   1.442  11.172  1.00  0.00     0.217 HD
ENDBRANCH   8  20
BRANCH  11  22
ATOM     22  O4  UNK     1      48.550   2.764   5.947  1.00  0.00    -0.361 OA
ATOM     23  H11 UNK     1      49.422   2.341   6.032  1.00  0.00     0.217 HD
ENDBRANCH  11  22
TORSDOF 4
ENDMDL
MODEL 9
REMARK VINA RESULT:      -6.0     16.194     18.467
REMARK  4 active torsions:
REMARK  status: ('A' for Active; 'I' for Inactive)
REMARK    1  A    between atoms: O3_3  and  C7_12 
REMARK    2  A    between atoms: O4_4  and  C12_17 
REMARK    3  A    between atoms: O5_5  and  C15_20 
REMARK    4  A    between atoms: C1_6  and  C3_8 
ROOT
ATOM      1  O1  UNK     1      44.033   0.160   9.094  1.00  0.00    -0.340 OA
ATOM      2  O2  UNK     1      40.990   2.213   7.262  1.00  0.00    -0.292 OA
ATOM      3  C1  UNK     1      44.290   0.985   7.947  1.00  0.00     0.169 C 
ATOM      4  C2  UNK     1      43.308   2.152   7.879  1.00  0.00     0.121 C 
ATOM      5  C4  UNK     1      41.671   0.330   8.512  1.00  0.00     0.076 A 
ATOM      6  C5  UNK     1      41.903   1.609   7.811  1.00  0.00     0.167 C 
ATOM      7  C6  UNK     1      42.746  -0.311   9.134  1.00  0.00     0.089 A 
ATOM      8  C7  UNK     1      40.385  -0.212   8.591  1.00  0.00     0.085 A 
ATOM      9  C8  UNK     1      42.529  -1.480   9.865  1.00  0.00     0.074 A 
ATOM     10  C11 UNK     1      40.177  -1.392   9.306  1.00  0.00     0.074 A 
ATOM     11  C12 UNK     1      41.245  -2.022   9.947  1.00  0.00     0.071 A 
ENDROOT
BRANCH   3  12
ATOM     12  C3  UNK     1      45.720   1.479   8.025  1.00  0.00    -0.028 A 
ATOM     13  C9  UNK     1      46.547   1.058   9.066  1.00  0.00     0.012 A 
ATOM     14  C13 UNK     1      47.864   1.513   9.137  1.00  0.00     0.037 A 
ATOM     15  C15 UNK     1      48.353   2.388   8.168  1.00  0.00     0.065 A 
ATOM     16  C14 UNK     1      47.524   2.810   7.127  1.00  0.00     0.037 A 
ATOM     17  C10 UNK     1      46.208   2.354   7.055  1.00  0.00     0.012 A 
BRANCH  15  18
ATOM     18  O5  UNK     1      49.637   2.833   8.238  1.00  0.00    -0.361 OA
ATOM     19  H12 UNK     1      50.169   2.185   8.731  1.00  0.00     0.217 HD
ENDBRANCH  15  18
ENDBRANCH   3  12
BRANCH   8  20
ATOM     20  O3  UNK     1      39.304   0.369   8.000  1.00  0.00    -0.360 OA
ATOM     21  H10 UNK     1      38.804  -0.301   7.506  1.00  0.00     0.217 HD
ENDBRANCH   8  20
BRANCH  11  22
ATOM     22  O4  UNK     1      41.035  -3.168  10.650  1.00  0.00    -0.361 OA
ATOM     23  H11 UNK     1      41.662  -3.201  11.394  1.00  0.00     0.217 HD
ENDBRANCH  11  22
TORSDOF 4
ENDMDL
MODEL 10
REMARK VINA RESULT:      -6.0     12.932     15.693
REMARK  4 active torsions:
REMARK  status: ('A' for Active; 'I' for Inactive)
REMARK    1  A    between atoms: O3_3  and  C7_12 
REMARK    2  A    between atoms: O4_4  and  C12_17 
REMARK    3  A    between atoms: O5_5  and  C15_20 
REMARK    4  A    between atoms: C1_6  and  C3_8 
ROOT
ATOM      1  O1  UNK     1      39.032  22.181  11.130  1.00  0.00    -0.340 OA
ATOM      2  O2  UNK     1      37.794  19.652  14.114  1.00  0.00    -0.292 OA
ATOM      3  C1  UNK     1      37.641  22.070  11.468  1.00  0.00     0.169 C 
ATOM      4  C2  UNK     1      37.461  21.720  12.944  1.00  0.00     0.121 C 
ATOM      5  C4  UNK     1      39.365  20.139  12.420  1.00  0.00     0.076 A 
ATOM      6  C5  UNK     1      38.160  20.415  13.229  1.00  0.00     0.167 C 
ATOM      7  C6  UNK     1      39.746  21.050  11.431  1.00  0.00     0.089 A 
ATOM      8  C7  UNK     1      40.140  19.003  12.669  1.00  0.00     0.085 A 
ATOM      9  C8  UNK     1      40.923  20.842  10.712  1.00  0.00     0.074 A 
ATOM     10  C11 UNK     1      41.306  18.789  11.933  1.00  0.00     0.074 A 
ATOM     11  C12 UNK     1      41.700  19.709  10.960  1.00  0.00     0.071 A 
ENDROOT
BRANCH   3  12
ATOM     12  C3  UNK     1      36.961  23.382  11.132  1.00  0.00    -0.028 A 
ATOM     13  C9  UNK     1      37.359  24.556  11.771  1.00  0.00     0.012 A 
ATOM     14  C13 UNK     1      36.732  25.763  11.461  1.00  0.00     0.037 A 
ATOM     15  C15 UNK     1      35.710  25.796  10.513  1.00  0.00     0.065 A 
ATOM     16  C14 UNK     1      35.312  24.620   9.875  1.00  0.00     0.037 A 
ATOM     17  C10 UNK     1      35.939  23.413  10.184  1.00  0.00     0.012 A 
BRANCH  15  18
ATOM     18  O5  UNK     1      35.098  26.974  10.211  1.00  0.00    -0.361 OA
ATOM     19  H12 UNK     1      34.180  26.943  10.529  1.00  0.00     0.217 HD
ENDBRANCH  15  18
ENDBRANCH   3  12
BRANCH   8  20
ATOM     20  O3  UNK     1      39.813  18.082  13.618  1.00  0.00    -0.360 OA
ATOM     21  H10 UNK     1      40.212  18.333  14.467  1.00  0.00     0.217 HD
ENDBRANCH   8  20
BRANCH  11  22
ATOM     22  O4  UNK     1      42.843  19.500  10.250  1.00  0.00    -0.361 OA
ATOM     23  H11 UNK     1      42.618  19.057   9.414  1.00  0.00     0.217 HD
ENDBRANCH  11  22
TORSDOF 4
ENDMDL
MODEL 11
REMARK VINA RESULT:      -5.9     21.904     24.082
REMARK  4 active torsions:
REMARK  status: ('A' for Active; 'I' for Inactive)
REMARK    1  A    between atoms: O3_3  and  C7_12 
REMARK    2  A    between atoms: O4_4  and  C12_17 
REMARK    3  A    between atoms: O5_5  and  C15_20 
REMARK    4  A    between atoms: C1_6  and  C3_8 
ROOT
ATOM      1  O1  UNK     1      39.178  -8.511  -5.049  1.00  0.00    -0.340 OA
ATOM      2  O2  UNK     1      36.679  -5.331  -4.365  1.00  0.00    -0.292 OA
ATOM      3  C1  UNK     1      39.336  -7.284  -5.778  1.00  0.00     0.169 C 
ATOM      4  C2  UNK     1      38.880  -6.088  -4.944  1.00  0.00     0.121 C 
ATOM      5  C4  UNK     1      36.989  -7.671  -4.380  1.00  0.00     0.076 A 
ATOM      6  C5  UNK     1      37.433  -6.274  -4.566  1.00  0.00     0.167 C 
ATOM      7  C6  UNK     1      37.895  -8.710  -4.610  1.00  0.00     0.089 A 
ATOM      8  C7  UNK     1      35.694  -7.949  -3.937  1.00  0.00     0.085 A 
ATOM      9  C8  UNK     1      37.514 -10.030  -4.365  1.00  0.00     0.074 A 
ATOM     10  C11 UNK     1      35.312  -9.273  -3.713  1.00  0.00     0.074 A 
ATOM     11  C12 UNK     1      36.221 -10.311  -3.920  1.00  0.00     0.071 A 
ENDROOT
BRANCH   3  12
ATOM     12  C3  UNK     1      40.790  -7.148  -6.178  1.00  0.00    -0.028 A 
ATOM     13  C9  UNK     1      41.672  -6.438  -5.364  1.00  0.00     0.012 A 
ATOM     14  C13 UNK     1      43.013  -6.313  -5.732  1.00  0.00     0.037 A 
ATOM     15  C15 UNK     1      43.469  -6.897  -6.914  1.00  0.00     0.065 A 
ATOM     16  C14 UNK     1      42.584  -7.606  -7.728  1.00  0.00     0.037 A 
ATOM     17  C10 UNK     1      41.245  -7.732  -7.359  1.00  0.00     0.012 A 
BRANCH  15  18
ATOM     18  O5  UNK     1      44.775  -6.774  -7.273  1.00  0.00    -0.361 OA
ATOM     19  H12 UNK     1      45.284  -6.454  -6.509  1.00  0.00     0.217 HD
ENDBRANCH  15  18
ENDBRANCH   3  12
BRANCH   8  20
ATOM     20  O3  UNK     1      34.771  -6.976  -3.701  1.00  0.00    -0.360 OA
ATOM     21  H10 UNK     1      34.491  -6.582  -4.544  1.00  0.00     0.217 HD
ENDBRANCH   8  20
BRANCH  11  22
ATOM     22  O4  UNK     1      35.846 -11.599  -3.693  1.00  0.00    -0.361 OA
ATOM     23  H11 UNK     1      36.639 -12.131  -3.504  1.00  0.00     0.217 HD
ENDBRANCH  11  22
TORSDOF 4
ENDMDL
MODEL 12
REMARK VINA RESULT:      -5.9     15.898     18.077
REMARK  4 active torsions:
REMARK  status: ('A' for Active; 'I' for Inactive)
REMARK    1  A    between atoms: O3_3  and  C7_12 
REMARK    2  A    between atoms: O4_4  and  C12_17 
REMARK    3  A    between atoms: O5_5  and  C15_20 
REMARK    4  A    between atoms: C1_6  and  C3_8 
ROOT
ATOM      1  O1  UNK     1      42.147  -0.153   8.552  1.00  0.00    -0.340 OA
ATOM      2  O2  UNK     1      39.438   2.539   7.054  1.00  0.00    -0.292 OA
ATOM      3  C1  UNK     1      42.562   0.876   7.641  1.00  0.00     0.169 C 
ATOM      4  C2  UNK     1      41.685   2.119   7.781  1.00  0.00     0.121 C 
ATOM      5  C4  UNK     1      39.861   0.369   7.882  1.00  0.00     0.076 A 
ATOM      6  C5  UNK     1      40.252   1.743   7.506  1.00  0.00     0.167 C 
ATOM      7  C6  UNK     1      40.827  -0.495   8.405  1.00  0.00     0.089 A 
ATOM      8  C7  UNK     1      38.534  -0.049   7.757  1.00  0.00     0.085 A 
ATOM      9  C8  UNK     1      40.458  -1.769   8.837  1.00  0.00     0.074 A 
ATOM     10  C11 UNK     1      38.174  -1.332   8.171  1.00  0.00     0.074 A 
ATOM     11  C12 UNK     1      39.132  -2.189   8.715  1.00  0.00     0.071 A 
ENDROOT
BRANCH   3  12
ATOM     12  C3  UNK     1      44.016   1.201   7.916  1.00  0.00    -0.028 A 
ATOM     13  C9  UNK     1      44.621   0.747   9.088  1.00  0.00     0.012 A 
ATOM     14  C13 UNK     1      45.960   1.045   9.340  1.00  0.00     0.037 A 
ATOM     15  C15 UNK     1      46.693   1.796   8.422  1.00  0.00     0.065 A 
ATOM     16  C14 UNK     1      46.087   2.250   7.250  1.00  0.00     0.037 A 
ATOM     17  C10 UNK     1      44.748   1.951   6.997  1.00  0.00     0.012 A 
BRANCH  15  18
ATOM     18  O5  UNK     1      47.999   2.088   8.669  1.00  0.00    -0.361 OA
ATOM     19  H12 UNK     1      48.193   2.978   8.330  1.00  0.00     0.217 HD
ENDBRANCH  15  18
ENDBRANCH   3  12
BRANCH   8  20
ATOM     20  O3  UNK     1      37.555   0.750   7.250  1.00  0.00    -0.360 OA
ATOM     21  H10 UNK     1      36.940   0.215   6.721  1.00  0.00     0.217 HD
ENDBRANCH   8  20
BRANCH  11  22
ATOM     22  O4  UNK     1      38.774  -3.437   9.125  1.00  0.00    -0.361 OA
ATOM     23  H11 UNK     1      37.858  -3.610   8.846  1.00  0.00     0.217 HD
ENDBRANCH  11  22
TORSDOF 4
ENDMDL
MODEL 13
REMARK VINA RESULT:      -5.8     16.087     18.313
REMARK  4 active torsions:
REMARK  status: ('A' for Active; 'I' for Inactive)
REMARK    1  A    between atoms: O3_3  and  C7_12 
REMARK    2  A    between atoms: O4_4  and  C12_17 
REMARK    3  A    between atoms: O5_5  and  C15_20 
REMARK    4  A    between atoms: C1_6  and  C3_8 
ROOT
ATOM      1  O1  UNK     1      42.559   0.945   7.968  1.00  0.00    -0.340 OA
ATOM      2  O2  UNK     1      41.011  -1.734  10.661  1.00  0.00    -0.292 OA
ATOM      3  C1  UNK     1      43.239   0.669   9.202  1.00  0.00     0.169 C 
ATOM      4  C2  UNK     1      42.966  -0.758   9.672  1.00  0.00     0.121 C 
ATOM      5  C4  UNK     1      40.617  -0.152   8.953  1.00  0.00     0.076 A 
ATOM      6  C5  UNK     1      41.482  -0.940   9.857  1.00  0.00     0.167 C 
ATOM      7  C6  UNK     1      41.207   0.730   8.044  1.00  0.00     0.089 A 
ATOM      8  C7  UNK     1      39.230  -0.318   8.977  1.00  0.00     0.085 A 
ATOM      9  C8  UNK     1      40.410   1.423   7.133  1.00  0.00     0.074 A 
ATOM     10  C11 UNK     1      38.436   0.393   8.077  1.00  0.00     0.074 A 
ATOM     11  C12 UNK     1      39.024   1.258   7.153  1.00  0.00     0.071 A 
ENDROOT
BRANCH   3  12
ATOM     12  C3  UNK     1      44.722   0.901   8.994  1.00  0.00    -0.028 A 
ATOM     13  C9  UNK     1      45.164   1.619   7.884  1.00  0.00     0.012 A 
ATOM     14  C13 UNK     1      46.530   1.833   7.693  1.00  0.00     0.037 A 
ATOM     15  C15 UNK     1      47.451   1.330   8.611  1.00  0.00     0.065 A 
ATOM     16  C14 UNK     1      47.006   0.611   9.722  1.00  0.00     0.037 A 
ATOM     17  C10 UNK     1      45.641   0.398   9.913  1.00  0.00     0.012 A 
BRANCH  15  18
ATOM     18  O5  UNK     1      48.782   1.538   8.424  1.00  0.00    -0.361 OA
ATOM     19  H12 UNK     1      49.252   1.336   9.251  1.00  0.00     0.217 HD
ENDBRANCH  15  18
ENDBRANCH   3  12
BRANCH   8  20
ATOM     20  O3  UNK     1      38.604  -1.161   9.845  1.00  0.00    -0.360 OA
ATOM     21  H10 UNK     1      39.119  -1.222  10.667  1.00  0.00     0.217 HD
ENDBRANCH   8  20
BRANCH  11  22
ATOM     22  O4  UNK     1      38.245   1.944   6.272  1.00  0.00    -0.361 OA
ATOM     23  H11 UNK     1      38.060   1.374   5.505  1.00  0.00     0.217 HD
ENDBRANCH  11  22
TORSDOF 4
ENDMDL
MODEL 14
REMARK VINA RESULT:      -5.8     12.769     15.368
REMARK  4 active torsions:
REMARK  status: ('A' for Active; 'I' for Inactive)
REMARK    1  A    between atoms: O3_3  and  C7_12 
REMARK    2  A    between atoms: O4_4  and  C12_17 
REMARK    3  A    between atoms: O5_5  and  C15_20 
REMARK    4  A    between atoms: C1_6  and  C3_8 
ROOT
ATOM      1  O1  UNK     1      36.604  23.358  10.610  1.00  0.00    -0.340 OA
ATOM      2  O2  UNK     1      34.574  22.965  14.152  1.00  0.00    -0.292 OA
ATOM      3  C1  UNK     1      37.276  22.903  11.794  1.00  0.00     0.169 C 
ATOM      4  C2  UNK     1      36.316  22.154  12.716  1.00  0.00     0.121 C 
ATOM      5  C4  UNK     1      34.794  24.072  12.079  1.00  0.00     0.076 A 
ATOM      6  C5  UNK     1      35.182  23.072  13.095  1.00  0.00     0.167 C 
ATOM      7  C6  UNK     1      35.514  24.143  10.883  1.00  0.00     0.089 A 
ATOM      8  C7  UNK     1      33.694  24.908  12.291  1.00  0.00     0.085 A 
ATOM      9  C8  UNK     1      35.113  25.029   9.883  1.00  0.00     0.074 A 
ATOM     10  C11 UNK     1      33.310  25.806  11.296  1.00  0.00     0.074 A 
ATOM     11  C12 UNK     1      34.014  25.864  10.092  1.00  0.00     0.071 A 
ENDROOT
BRANCH   3  12
ATOM     12  C3  UNK     1      38.434  22.018  11.378  1.00  0.00    -0.028 A 
ATOM     13  C9  UNK     1      39.406  21.660  12.311  1.00  0.00     0.012 A 
ATOM     14  C13 UNK     1      40.472  20.845  11.927  1.00  0.00     0.037 A 
ATOM     15  C15 UNK     1      40.564  20.390  10.613  1.00  0.00     0.065 A 
ATOM     16  C14 UNK     1      39.591  20.750   9.680  1.00  0.00     0.037 A 
ATOM     17  C10 UNK     1      38.525  21.564  10.063  1.00  0.00     0.012 A 
BRANCH  15  18
ATOM     18  O5  UNK     1      41.604  19.596  10.239  1.00  0.00    -0.361 OA
ATOM     19  H12 UNK     1      42.426  19.953  10.616  1.00  0.00     0.217 HD
ENDBRANCH  15  18
ENDBRANCH   3  12
BRANCH   8  20
ATOM     20  O3  UNK     1      32.961  24.883  13.439  1.00  0.00    -0.360 OA
ATOM     21  H10 UNK     1      32.727  23.965  13.656  1.00  0.00     0.217 HD
ENDBRANCH   8  20
BRANCH  11  22
ATOM     22  O4  UNK     1      33.629  26.737   9.120  1.00  0.00    -0.361 OA
ATOM     23  H11 UNK     1      33.180  26.243   8.412  1.00  0.00     0.217 HD
ENDBRANCH  11  22
TORSDOF 4
ENDMDL
MODEL 15
REMARK VINA RESULT:      -5.8     15.231     17.860
REMARK  4 active torsions:
REMARK  status: ('A' for Active; 'I' for Inactive)
REMARK    1  A    between atoms: O3_3  and  C7_12 
REMARK    2  A    between atoms: O4_4  and  C12_17 
REMARK    3  A    between atoms: O5_5  and  C15_20 
REMARK    4  A    between atoms: C1_6  and  C3_8 
ROOT
ATOM      1  O1  UNK     1      41.986   1.220   9.415  1.00  0.00    -0.340 OA
ATOM      2  O2  UNK     1      38.944   1.369   6.668  1.00  0.00    -0.292 OA
ATOM      3  C1  UNK     1      41.923   2.278   8.447  1.00  0.00     0.169 C 
ATOM      4  C2  UNK     1      40.478   2.581   8.058  1.00  0.00     0.121 C 
ATOM      5  C4  UNK     1      40.340   0.055   8.045  1.00  0.00     0.076 A 
ATOM      6  C5  UNK     1      39.849   1.334   7.492  1.00  0.00     0.167 C 
ATOM      7  C6  UNK     1      41.367   0.073   8.993  1.00  0.00     0.089 A 
ATOM      8  C7  UNK     1      39.758  -1.155   7.658  1.00  0.00     0.085 A 
ATOM      9  C8  UNK     1      41.789  -1.120   9.581  1.00  0.00     0.074 A 
ATOM     10  C11 UNK     1      40.198  -2.347   8.234  1.00  0.00     0.074 A 
ATOM     11  C12 UNK     1      41.208  -2.330   9.197  1.00  0.00     0.071 A 
ENDROOT
BRANCH   3  12
ATOM     12  C3  UNK     1      42.599   3.502   9.030  1.00  0.00    -0.028 A 
ATOM     13  C9  UNK     1      41.880   4.369   9.852  1.00  0.00     0.012 A 
ATOM     14  C13 UNK     1      42.503   5.496  10.389  1.00  0.00     0.037 A 
ATOM     15  C15 UNK     1      43.843   5.755  10.104  1.00  0.00     0.065 A 
ATOM     16  C14 UNK     1      44.562   4.887   9.281  1.00  0.00     0.037 A 
ATOM     17  C10 UNK     1      43.939   3.760   8.745  1.00  0.00     0.012 A 
BRANCH  15  18
ATOM     18  O5  UNK     1      44.451   6.855  10.627  1.00  0.00    -0.361 OA
ATOM     19  H12 UNK     1      44.241   6.910  11.575  1.00  0.00     0.217 HD
ENDBRANCH  15  18
ENDBRANCH   3  12
BRANCH   8  20
ATOM     20  O3  UNK     1      38.758  -1.229   6.735  1.00  0.00    -0.360 OA
ATOM     21  H10 UNK     1      39.141  -1.328   5.848  1.00  0.00     0.217 HD
ENDBRANCH   8  20
BRANCH  11  22
ATOM     22  O4  UNK     1      41.628  -3.495   9.762  1.00  0.00    -0.361 OA
ATOM     23  H11 UNK     1      42.473  -3.338  10.218  1.00  0.00     0.217 HD
ENDBRANCH  11  22
TORSDOF 4
ENDMDL
MODEL 16
REMARK VINA RESULT:      -5.8     16.178     19.304
REMARK  4 active torsions:
REMARK  status: ('A' for Active; 'I' for Inactive)
REMARK    1  A    between atoms: O3_3  and  C7_12 
REMARK    2  A    between atoms: O4_4  and  C12_17 
REMARK    3  A    between atoms: O5_5  and  C15_20 
REMARK    4  A    between atoms: C1_6  and  C3_8 
ROOT
ATOM      1  O1  UNK     1      41.440  -0.269   8.000  1.00  0.00    -0.340 OA
ATOM      2  O2  UNK     1      41.611  -2.615  11.360  1.00  0.00    -0.292 OA
ATOM      3  C1  UNK     1      42.360   0.034   9.061  1.00  0.00     0.169 C 
ATOM      4  C2  UNK     1      42.791  -1.235   9.792  1.00  0.00     0.121 C 
ATOM      5  C4  UNK     1      40.324  -1.754   9.579  1.00  0.00     0.076 A 
ATOM      6  C5  UNK     1      41.570  -1.917  10.355  1.00  0.00     0.167 C 
ATOM      7  C6  UNK     1      40.335  -0.955   8.432  1.00  0.00     0.089 A 
ATOM      8  C7  UNK     1      39.158  -2.422   9.962  1.00  0.00     0.085 A 
ATOM      9  C8  UNK     1      39.187  -0.853   7.646  1.00  0.00     0.074 A 
ATOM     10  C11 UNK     1      38.006  -2.299   9.184  1.00  0.00     0.074 A 
ATOM     11  C12 UNK     1      38.022  -1.521   8.025  1.00  0.00     0.071 A 
ENDROOT
BRANCH   3  12
ATOM     12  C3  UNK     1      43.554   0.754   8.468  1.00  0.00    -0.028 A 
ATOM     13  C9  UNK     1      44.790   0.698   9.111  1.00  0.00     0.012 A 
ATOM     14  C13 UNK     1      45.889   1.361   8.565  1.00  0.00     0.037 A 
ATOM     15  C15 UNK     1      45.752   2.080   7.378  1.00  0.00     0.065 A 
ATOM     16  C14 UNK     1      44.514   2.135   6.736  1.00  0.00     0.037 A 
ATOM     17  C10 UNK     1      43.416   1.471   7.281  1.00  0.00     0.012 A 
BRANCH  15  18
ATOM     18  O5  UNK     1      46.824   2.727   6.846  1.00  0.00    -0.361 OA
ATOM     19  H12 UNK     1      46.651   3.684   6.855  1.00  0.00     0.217 HD
ENDBRANCH  15  18
ENDBRANCH   3  12
BRANCH   8  20
ATOM     20  O3  UNK     1      39.091  -3.208  11.073  1.00  0.00    -0.360 OA
ATOM     21  H10 UNK     1      39.085  -2.648  11.867  1.00  0.00     0.217 HD
ENDBRANCH   8  20
BRANCH  11  22
ATOM     22  O4  UNK     1      36.897  -1.412   7.265  1.00  0.00    -0.361 OA
ATOM     23  H11 UNK     1      36.156  -1.831   7.736  1.00  0.00     0.217 HD
ENDBRANCH  11  22
TORSDOF 4
ENDMDL
MODEL 17
REMARK VINA RESULT:      -5.7     20.548     22.150
REMARK  4 active torsions:
REMARK  status: ('A' for Active; 'I' for Inactive)
REMARK    1  A    between atoms: O3_3  and  C7_12 
REMARK    2  A    between atoms: O4_4  and  C12_17 
REMARK    3  A    between atoms: O5_5  and  C15_20 
REMARK    4  A    between atoms: C1_6  and  C3_8 
ROOT
ATOM      1  O1  UNK     1      31.608  -1.823  -9.185  1.00  0.00    -0.340 OA
ATOM      2  O2  UNK     1      28.475  -3.750 -11.000  1.00  0.00    -0.292 OA
ATOM      3  C1  UNK     1      31.843  -2.896 -10.109  1.00  0.00     0.169 C 
ATOM      4  C2  UNK     1      30.737  -2.967 -11.159  1.00  0.00     0.121 C 
ATOM      5  C4  UNK     1      29.287  -2.567  -9.126  1.00  0.00     0.076 A 
ATOM      6  C5  UNK     1      29.414  -3.172 -10.468  1.00  0.00     0.167 C 
ATOM      7  C6  UNK     1      30.386  -1.907  -8.569  1.00  0.00     0.089 A 
ATOM      8  C7  UNK     1      28.071  -2.617  -8.439  1.00  0.00     0.085 A 
ATOM      9  C8  UNK     1      30.259  -1.264  -7.337  1.00  0.00     0.074 A 
ATOM     10  C11 UNK     1      27.956  -1.990  -7.197  1.00  0.00     0.074 A 
ATOM     11  C12 UNK     1      29.045  -1.311  -6.649  1.00  0.00     0.071 A 
ENDROOT
BRANCH   3  12
ATOM     12  C3  UNK     1      33.197  -2.683 -10.755  1.00  0.00    -0.028 A 
ATOM     13  C9  UNK     1      34.189  -3.654 -10.627  1.00  0.00     0.012 A 
ATOM     14  C13 UNK     1      35.436  -3.458 -11.223  1.00  0.00     0.037 A 
ATOM     15  C15 UNK     1      35.689  -2.293 -11.945  1.00  0.00     0.065 A 
ATOM     16  C14 UNK     1      34.694  -1.321 -12.072  1.00  0.00     0.037 A 
ATOM     17  C10 UNK     1      33.448  -1.518 -11.478  1.00  0.00     0.012 A 
BRANCH  15  18
ATOM     18  O5  UNK     1      36.905  -2.101 -12.525  1.00  0.00    -0.361 OA
ATOM     19  H12 UNK     1      37.577  -2.016 -11.828  1.00  0.00     0.217 HD
ENDBRANCH  15  18
ENDBRANCH   3  12
BRANCH   8  20
ATOM     20  O3  UNK     1      26.971  -3.250  -8.933  1.00  0.00    -0.360 OA
ATOM     21  H10 UNK     1      26.620  -2.751  -9.688  1.00  0.00     0.217 HD
ENDBRANCH   8  20
BRANCH  11  22
ATOM     22  O4  UNK     1      28.924  -0.695  -5.441  1.00  0.00    -0.361 OA
ATOM     23  H11 UNK     1      28.033  -0.312  -5.370  1.00  0.00     0.217 HD
ENDBRANCH  11  22
TORSDOF 4
ENDMDL
MODEL 18
REMARK VINA RESULT:      -5.7     16.930     18.455
REMARK  4 active torsions:
REMARK  status: ('A' for Active; 'I' for Inactive)
REMARK    1  A    between atoms: O3_3  and  C7_12 
REMARK    2  A    between atoms: O4_4  and  C12_17 
REMARK    3  A    between atoms: O5_5  and  C15_20 
REMARK    4  A    between atoms: C1_6  and  C3_8 
ROOT
ATOM      1  O1  UNK     1      46.301   1.916   9.736  1.00  0.00    -0.340 OA
ATOM      2  O2  UNK     1      44.056   0.997   6.428  1.00  0.00    -0.292 OA
ATOM      3  C1  UNK     1      46.933   1.567   8.494  1.00  0.00     0.169 C 
ATOM      4  C2  UNK     1      46.065   1.972   7.305  1.00  0.00     0.121 C 
ATOM      5  C4  UNK     1      44.243   1.023   8.781  1.00  0.00     0.076 A 
ATOM      6  C5  UNK     1      44.731   1.279   7.410  1.00  0.00     0.167 C 
ATOM      7  C6  UNK     1      45.048   1.377   9.868  1.00  0.00     0.089 A 
ATOM      8  C7  UNK     1      42.976   0.472   8.991  1.00  0.00     0.085 A 
ATOM      9  C8  UNK     1      44.570   1.212  11.168  1.00  0.00     0.074 A 
ATOM     10  C11 UNK     1      42.512   0.290  10.294  1.00  0.00     0.074 A 
ATOM     11  C12 UNK     1      43.304   0.664  11.381  1.00  0.00     0.071 A 
ENDROOT
BRANCH   3  12
ATOM     12  C3  UNK     1      48.287   2.244   8.438  1.00  0.00    -0.028 A 
ATOM     13  C9  UNK     1      49.238   1.979   9.423  1.00  0.00     0.012 A 
ATOM     14  C13 UNK     1      50.485   2.603   9.371  1.00  0.00     0.037 A 
ATOM     15  C15 UNK     1      50.780   3.489   8.336  1.00  0.00     0.065 A 
ATOM     16  C14 UNK     1      49.826   3.753   7.352  1.00  0.00     0.037 A 
ATOM     17  C10 UNK     1      48.580   3.129   7.403  1.00  0.00     0.012 A 
BRANCH  15  18
ATOM     18  O5  UNK     1      51.996   4.098   8.286  1.00  0.00    -0.361 OA
ATOM     19  H12 UNK     1      52.069   4.719   9.030  1.00  0.00     0.217 HD
ENDBRANCH  15  18
ENDBRANCH   3  12
BRANCH   8  20
ATOM     20  O3  UNK     1      42.154   0.106   7.969  1.00  0.00    -0.360 OA
ATOM     21  H10 UNK     1      42.538  -0.653   7.498  1.00  0.00     0.217 HD
ENDBRANCH   8  20
BRANCH  11  22
ATOM     22  O4  UNK     1      42.843   0.491  12.650  1.00  0.00    -0.361 OA
ATOM     23  H11 UNK     1      42.065   1.061  12.783  1.00  0.00     0.217 HD
ENDBRANCH  11  22
TORSDOF 4
ENDMDL
MODEL 19
REMARK VINA RESULT:      -5.7     15.870     16.746
REMARK  4 active torsions:
REMARK  status: ('A' for Active; 'I' for Inactive)
REMARK    1  A    between atoms: O3_3  and  C7_12 
REMARK    2  A    between atoms: O4_4  and  C12_17 
REMARK    3  A    between atoms: O5_5  and  C15_20 
REMARK    4  A    between atoms: C1_6  and  C3_8 
ROOT
ATOM      1  O1  UNK     1      43.513   1.935   7.425  1.00  0.00    -0.340 OA
ATOM      2  O2  UNK     1      44.087   4.767  10.337  1.00  0.00    -0.292 OA
ATOM      3  C1  UNK     1      42.666   1.979   8.584  1.00  0.00     0.169 C 
ATOM      4  C2  UNK     1      42.536   3.405   9.115  1.00  0.00     0.121 C 
ATOM      5  C4  UNK     1      45.022   3.412   8.645  1.00  0.00     0.076 A 
ATOM      6  C5  UNK     1      43.906   3.925   9.467  1.00  0.00     0.167 C 
ATOM      7  C6  UNK     1      44.758   2.461   7.655  1.00  0.00     0.089 A 
ATOM      8  C7  UNK     1      46.318   3.902   8.826  1.00  0.00     0.085 A 
ATOM      9  C8  UNK     1      45.787   2.025   6.820  1.00  0.00     0.074 A 
ATOM     10  C11 UNK     1      47.348   3.446   8.002  1.00  0.00     0.074 A 
ATOM     11  C12 UNK     1      47.083   2.514   6.997  1.00  0.00     0.071 A 
ENDROOT
BRANCH   3  12
ATOM     12  C3  UNK     1      41.312   1.411   8.208  1.00  0.00    -0.028 A 
ATOM     13  C9  UNK     1      41.003   0.087   8.517  1.00  0.00     0.012 A 
ATOM     14  C13 UNK     1      39.756  -0.436   8.172  1.00  0.00     0.037 A 
ATOM     15  C15 UNK     1      38.821   0.365   7.518  1.00  0.00     0.065 A 
ATOM     16  C14 UNK     1      39.132   1.690   7.209  1.00  0.00     0.037 A 
ATOM     17  C10 UNK     1      40.378   2.213   7.555  1.00  0.00     0.012 A 
BRANCH  15  18
ATOM     18  O5  UNK     1      37.605  -0.145   7.180  1.00  0.00    -0.361 OA
ATOM     19  H12 UNK     1      37.185  -0.511   7.977  1.00  0.00     0.217 HD
ENDBRANCH  15  18
ENDBRANCH   3  12
BRANCH   8  20
ATOM     20  O3  UNK     1      46.630   4.825   9.778  1.00  0.00    -0.360 OA
ATOM     21  H10 UNK     1      46.068   5.609   9.668  1.00  0.00     0.217 HD
ENDBRANCH   8  20
BRANCH  11  22
ATOM     22  O4  UNK     1      48.089   2.078   6.191  1.00  0.00    -0.361 OA
ATOM     23  H11 UNK     1      48.938   2.197   6.653  1.00  0.00     0.217 HD
ENDBRANCH  11  22
TORSDOF 4
ENDMDL
MODEL 20
REMARK VINA RESULT:      -5.7     19.041     22.547
REMARK  4 active torsions:
REMARK  status: ('A' for Active; 'I' for Inactive)
REMARK    1  A    between atoms: O3_3  and  C7_12 
REMARK    2  A    between atoms: O4_4  and  C12_17 
REMARK    3  A    between atoms: O5_5  and  C15_20 
REMARK    4  A    between atoms: C1_6  and  C3_8 
ROOT
ATOM      1  O1  UNK     1      37.781  -5.154   5.445  1.00  0.00    -0.340 OA
ATOM      2  O2  UNK     1      37.448  -6.422   9.332  1.00  0.00    -0.292 OA
ATOM      3  C1  UNK     1      38.021  -6.527   5.793  1.00  0.00     0.169 C 
ATOM      4  C2  UNK     1      37.188  -6.939   7.005  1.00  0.00     0.121 C 
ATOM      5  C4  UNK     1      37.937  -4.668   7.830  1.00  0.00     0.076 A 
ATOM      6  C5  UNK     1      37.540  -6.050   8.169  1.00  0.00     0.167 C 
ATOM      7  C6  UNK     1      38.014  -4.292   6.486  1.00  0.00     0.089 A 
ATOM      8  C7  UNK     1      38.192  -3.736   8.839  1.00  0.00     0.085 A 
ATOM      9  C8  UNK     1      38.313  -2.971   6.151  1.00  0.00     0.074 A 
ATOM     10  C11 UNK     1      38.511  -2.421   8.497  1.00  0.00     0.074 A 
ATOM     11  C12 UNK     1      38.566  -2.038   7.157  1.00  0.00     0.071 A 
ENDROOT
BRANCH   3  12
ATOM     12  C3  UNK     1      37.697  -7.389   4.590  1.00  0.00    -0.028 A 
ATOM     13  C9  UNK     1      38.547  -8.436   4.236  1.00  0.00     0.012 A 
ATOM     14  C13 UNK     1      38.249  -9.230   3.128  1.00  0.00     0.037 A 
ATOM     15  C15 UNK     1      37.103  -8.976   2.375  1.00  0.00     0.065 A 
ATOM     16  C14 UNK     1      36.254  -7.927   2.730  1.00  0.00     0.037 A 
ATOM     17  C10 UNK     1      36.551  -7.134   3.838  1.00  0.00     0.012 A 
BRANCH  15  18
ATOM     18  O5  UNK     1      36.813  -9.750   1.294  1.00  0.00    -0.361 OA
ATOM     19  H12 UNK     1      37.453 -10.480   1.247  1.00  0.00     0.217 HD
ENDBRANCH  15  18
ENDBRANCH   3  12
BRANCH   8  20
ATOM     20  O3  UNK     1      38.136  -4.050  10.163  1.00  0.00    -0.360 OA
ATOM     21  H10 UNK     1      38.891  -3.650  10.625  1.00  0.00     0.217 HD
ENDBRANCH   8  20
BRANCH  11  22
ATOM     22  O4  UNK     1      38.870  -0.751   6.829  1.00  0.00    -0.361 OA
ATOM     23  H11 UNK     1      38.612  -0.169   7.565  1.00  0.00     0.217 HD
ENDBRANCH  11  22
TORSDOF 4
ENDMDL
