MODEL 1
REMARK VINA RESULT:      -7.4      0.000      0.000
REMARK  4 active torsions:
REMARK  status: ('A' for Active; 'I' for Inactive)
REMARK    1  A    between atoms: O3_3  and  C7_12 
REMARK    2  A    between atoms: O4_4  and  C12_17 
REMARK    3  A    between atoms: O5_5  and  C15_20 
REMARK    4  A    between atoms: C1_6  and  C3_8 
ROOT
ATOM      1  O1  UNK     1      39.867  15.459   0.011  1.00  0.00    -0.340 OA
ATOM      2  O2  UNK     1      41.315  16.349  -3.722  1.00  0.00    -0.292 OA
ATOM      3  C1  UNK     1      40.072  14.424  -0.962  1.00  0.00     0.169 C 
ATOM      4  C2  UNK     1      41.215  14.781  -1.910  1.00  0.00     0.121 C 
ATOM      5  C4  UNK     1      40.085  17.043  -1.830  1.00  0.00     0.076 A 
ATOM      6  C5  UNK     1      40.891  16.077  -2.606  1.00  0.00     0.167 C 
ATOM      7  C6  UNK     1      39.637  16.686  -0.555  1.00  0.00     0.089 A 
ATOM      8  C7  UNK     1      39.810  18.312  -2.346  1.00  0.00     0.085 A 
ATOM      9  C8  UNK     1      38.941  17.614   0.220  1.00  0.00     0.074 A 
ATOM     10  C11 UNK     1      39.095  19.228  -1.574  1.00  0.00     0.074 A 
ATOM     11  C12 UNK     1      38.666  18.883  -0.292  1.00  0.00     0.071 A 
ENDROOT
BRANCH   3  12
ATOM     12  C3  UNK     1      40.354  13.128  -0.231  1.00  0.00    -0.028 A 
ATOM     13  C9  UNK     1      40.928  12.055  -0.912  1.00  0.00     0.012 A 
ATOM     14  C13 UNK     1      41.188  10.861  -0.238  1.00  0.00     0.037 A 
ATOM     15  C15 UNK     1      40.873  10.741   1.115  1.00  0.00     0.065 A 
ATOM     16  C14 UNK     1      40.298  11.815   1.796  1.00  0.00     0.037 A 
ATOM     17  C10 UNK     1      40.040  13.009   1.122  1.00  0.00     0.012 A 
BRANCH  15  18
ATOM     18  O5  UNK     1      41.126   9.577   1.772  1.00  0.00    -0.361 OA
ATOM     19  H12 UNK     1      41.983   9.226   1.475  1.00  0.00     0.217 HD
ENDBRANCH  15  18
ENDBRANCH   3  12
BRANCH   8  20
ATOM     20  O3  UNK     1      40.218  18.708  -3.583  1.00  0.00    -0.360 OA
ATOM     21  H10 UNK     1      41.086  19.140  -3.517  1.00  0.00     0.217 HD
ENDBRANCH   8  20
BRANCH  11  22
ATOM     22  O4  UNK     1      37.976  19.785   0.460  1.00  0.00    -0.361 OA
ATOM     23  H11 UNK     1      38.566  20.525   0.685  1.00  0.00     0.217 HD
ENDBRANCH  11  22
TORSDOF 4
ENDMDL
MODEL 2
REMARK VINA RESULT:      -7.4      2.455      7.134
REMARK  4 active torsions:
REMARK  status: ('A' for Active; 'I' for Inactive)
REMARK    1  A    between atoms: O3_3  and  C7_12 
REMARK    2  A    between atoms: O4_4  and  C12_17 
REMARK    3  A    between atoms: O5_5  and  C15_20 
REMARK    4  A    between atoms: C1_6  and  C3_8 
ROOT
ATOM      1  O1  UNK     1      40.407  17.060  -1.008  1.00  0.00    -0.340 OA
ATOM      2  O2  UNK     1      36.894  14.980  -0.609  1.00  0.00    -0.292 OA
ATOM      3  C1  UNK     1      39.145  17.697  -1.259  1.00  0.00     0.169 C 
ATOM      4  C2  UNK     1      38.039  17.079  -0.407  1.00  0.00     0.121 C 
ATOM      5  C4  UNK     1      39.202  14.943  -1.105  1.00  0.00     0.076 A 
ATOM      6  C5  UNK     1      37.940  15.608  -0.721  1.00  0.00     0.167 C 
ATOM      7  C6  UNK     1      40.370  15.704  -1.205  1.00  0.00     0.089 A 
ATOM      8  C7  UNK     1      39.238  13.564  -1.324  1.00  0.00     0.085 A 
ATOM      9  C8  UNK     1      41.584  15.079  -1.492  1.00  0.00     0.074 A 
ATOM     10  C11 UNK     1      40.451  12.946  -1.631  1.00  0.00     0.074 A 
ATOM     11  C12 UNK     1      41.623  13.701  -1.709  1.00  0.00     0.071 A 
ENDROOT
BRANCH   3  12
ATOM     12  C3  UNK     1      39.290  19.178  -0.975  1.00  0.00    -0.028 A 
ATOM     13  C9  UNK     1      38.632  19.744   0.116  1.00  0.00     0.012 A 
ATOM     14  C13 UNK     1      38.766  21.108   0.379  1.00  0.00     0.037 A 
ATOM     15  C15 UNK     1      39.557  21.904  -0.450  1.00  0.00     0.065 A 
ATOM     16  C14 UNK     1      40.215  21.335  -1.541  1.00  0.00     0.037 A 
ATOM     17  C10 UNK     1      40.082  19.972  -1.803  1.00  0.00     0.012 A 
BRANCH  15  18
ATOM     18  O5  UNK     1      39.688  23.234  -0.194  1.00  0.00    -0.361 OA
ATOM     19  H12 UNK     1      39.731  23.714  -1.038  1.00  0.00     0.217 HD
ENDBRANCH  15  18
ENDBRANCH   3  12
BRANCH   8  20
ATOM     20  O3  UNK     1      38.129  12.776  -1.244  1.00  0.00    -0.360 OA
ATOM     21  H10 UNK     1      38.093  12.186  -2.015  1.00  0.00     0.217 HD
ENDBRANCH   8  20
BRANCH  11  22
ATOM     22  O4  UNK     1      42.805  13.092  -2.001  1.00  0.00    -0.361 OA
ATOM     23  H11 UNK     1      43.290  12.932  -1.173  1.00  0.00     0.217 HD
ENDBRANCH  11  22
TORSDOF 4
ENDMDL
MODEL 3
REMARK VINA RESULT:      -7.1      1.335      3.026
REMARK  4 active torsions:
REMARK  status: ('A' for Active; 'I' for Inactive)
REMARK    1  A    between atoms: O3_3  and  C7_12 
REMARK    2  A    between atoms: O4_4  and  C12_17 
REMARK    3  A    between atoms: O5_5  and  C15_20 
REMARK    4  A    between atoms: C1_6  and  C3_8 
ROOT
ATOM      1  O1  UNK     1      40.493  15.197  -2.074  1.00  0.00    -0.340 OA
ATOM      2  O2  UNK     1      38.827  18.131   0.259  1.00  0.00    -0.292 OA
ATOM      3  C1  UNK     1      40.546  15.115  -0.642  1.00  0.00     0.169 C 
ATOM      4  C2  UNK     1      39.340  15.803  -0.007  1.00  0.00     0.121 C 
ATOM      5  C4  UNK     1      39.862  17.534  -1.777  1.00  0.00     0.076 A 
ATOM      6  C5  UNK     1      39.318  17.248  -0.433  1.00  0.00     0.167 C 
ATOM      7  C6  UNK     1      40.399  16.486  -2.531  1.00  0.00     0.089 A 
ATOM      8  C7  UNK     1      39.801  18.825  -2.306  1.00  0.00     0.085 A 
ATOM      9  C8  UNK     1      40.845  16.725  -3.831  1.00  0.00     0.074 A 
ATOM     10  C11 UNK     1      40.269  19.062  -3.600  1.00  0.00     0.074 A 
ATOM     11  C12 UNK     1      40.785  18.014  -4.363  1.00  0.00     0.071 A 
ENDROOT
BRANCH   3  12
ATOM     12  C3  UNK     1      40.610  13.653  -0.249  1.00  0.00    -0.028 A 
ATOM     13  C9  UNK     1      40.148  13.249   1.004  1.00  0.00     0.012 A 
ATOM     14  C13 UNK     1      40.207  11.902   1.366  1.00  0.00     0.037 A 
ATOM     15  C15 UNK     1      40.725  10.962   0.476  1.00  0.00     0.065 A 
ATOM     16  C14 UNK     1      41.187  11.368  -0.777  1.00  0.00     0.037 A 
ATOM     17  C10 UNK     1      41.128  12.714  -1.139  1.00  0.00     0.012 A 
BRANCH  15  18
ATOM     18  O5  UNK     1      40.783   9.649   0.829  1.00  0.00    -0.361 OA
ATOM     19  H12 UNK     1      41.551   9.240   0.397  1.00  0.00     0.217 HD
ENDBRANCH  15  18
ENDBRANCH   3  12
BRANCH   8  20
ATOM     20  O3  UNK     1      39.293  19.882  -1.614  1.00  0.00    -0.360 OA
ATOM     21  H10 UNK     1      39.851  20.664  -1.758  1.00  0.00     0.217 HD
ENDBRANCH   8  20
BRANCH  11  22
ATOM     22  O4  UNK     1      41.232  18.249  -5.627  1.00  0.00    -0.361 OA
ATOM     23  H11 UNK     1      40.727  17.697  -6.249  1.00  0.00     0.217 HD
ENDBRANCH  11  22
TORSDOF 4
ENDMDL
MODEL 4
REMARK VINA RESULT:      -6.4      1.562      6.686
REMARK  4 active torsions:
REMARK  status: ('A' for Active; 'I' for Inactive)
REMARK    1  A    between atoms: O3_3  and  C7_12 
REMARK    2  A    between atoms: O4_4  and  C12_17 
REMARK    3  A    between atoms: O5_5  and  C15_20 
REMARK    4  A    between atoms: C1_6  and  C3_8 
ROOT
ATOM      1  O1  UNK     1      40.149  14.014   0.668  1.00  0.00    -0.340 OA
ATOM      2  O2  UNK     1      41.607  10.601  -1.078  1.00  0.00    -0.292 OA
ATOM      3  C1  UNK     1      40.987  14.086  -0.495  1.00  0.00     0.169 C 
ATOM      4  C2  UNK     1      40.816  12.846  -1.371  1.00  0.00     0.121 C 
ATOM      5  C4  UNK     1      40.880  11.697   0.882  1.00  0.00     0.076 A 
ATOM      6  C5  UNK     1      41.167  11.622  -0.566  1.00  0.00     0.167 C 
ATOM      7  C6  UNK     1      40.365  12.884   1.413  1.00  0.00     0.089 A 
ATOM      8  C7  UNK     1      41.079  10.584   1.702  1.00  0.00     0.085 A 
ATOM      9  C8  UNK     1      40.017  12.945   2.763  1.00  0.00     0.074 A 
ATOM     10  C11 UNK     1      40.748  10.659   3.056  1.00  0.00     0.074 A 
ATOM     11  C12 UNK     1      40.213  11.834   3.584  1.00  0.00     0.071 A 
ENDROOT
BRANCH   3  12
ATOM     12  C3  UNK     1      40.638  15.346  -1.260  1.00  0.00    -0.028 A 
ATOM     13  C9  UNK     1      41.016  15.477  -2.595  1.00  0.00     0.012 A 
ATOM     14  C13 UNK     1      40.695  16.639  -3.299  1.00  0.00     0.037 A 
ATOM     15  C15 UNK     1      39.996  17.667  -2.667  1.00  0.00     0.065 A 
ATOM     16  C14 UNK     1      39.618  17.534  -1.330  1.00  0.00     0.037 A 
ATOM     17  C10 UNK     1      39.939  16.373  -0.627  1.00  0.00     0.012 A 
BRANCH  15  18
ATOM     18  O5  UNK     1      39.683  18.799  -3.354  1.00  0.00    -0.361 OA
ATOM     19  H12 UNK     1      39.337  19.460  -2.730  1.00  0.00     0.217 HD
ENDBRANCH  15  18
ENDBRANCH   3  12
BRANCH   8  20
ATOM     20  O3  UNK     1      41.581   9.407   1.237  1.00  0.00    -0.360 OA
ATOM     21  H10 UNK     1      41.405   8.701   1.881  1.00  0.00     0.217 HD
ENDBRANCH   8  20
BRANCH  11  22
ATOM     22  O4  UNK     1      39.885  11.899   4.904  1.00  0.00    -0.361 OA
ATOM     23  H11 UNK     1      40.399  11.231   5.390  1.00  0.00     0.217 HD
ENDBRANCH  11  22
TORSDOF 4
ENDMDL
MODEL 5
REMARK VINA RESULT:      -6.3      1.512      6.684
REMARK  4 active torsions:
REMARK  status: ('A' for Active; 'I' for Inactive)
REMARK    1  A    between atoms: O3_3  and  C7_12 
REMARK    2  A    between atoms: O4_4  and  C12_17 
REMARK    3  A    between atoms: O5_5  and  C15_20 
REMARK    4  A    between atoms: C1_6  and  C3_8 
ROOT
ATOM      1  O1  UNK     1      39.676  14.190   0.197  1.00  0.00    -0.340 OA
ATOM      2  O2  UNK     1      42.162  12.299  -2.463  1.00  0.00    -0.292 OA
ATOM      3  C1  UNK     1      40.616  14.939  -0.589  1.00  0.00     0.169 C 
ATOM      4  C2  UNK     1      40.879  14.255  -1.928  1.00  0.00     0.121 C 
ATOM      5  C4  UNK     1      40.929  12.201  -0.452  1.00  0.00     0.076 A 
ATOM      6  C5  UNK     1      41.416  12.869  -1.677  1.00  0.00     0.167 C 
ATOM      7  C6  UNK     1      40.068  12.893   0.405  1.00  0.00     0.089 A 
ATOM      8  C7  UNK     1      41.289  10.880  -0.175  1.00  0.00     0.085 A 
ATOM      9  C8  UNK     1      39.539  12.249   1.524  1.00  0.00     0.074 A 
ATOM     10  C11 UNK     1      40.774  10.249   0.958  1.00  0.00     0.074 A 
ATOM     11  C12 UNK     1      39.896  10.929   1.803  1.00  0.00     0.071 A 
ENDROOT
BRANCH   3  12
ATOM     12  C3  UNK     1      40.068  16.337  -0.788  1.00  0.00    -0.028 A 
ATOM     13  C9  UNK     1      39.345  16.952   0.234  1.00  0.00     0.012 A 
ATOM     14  C13 UNK     1      38.841  18.240   0.051  1.00  0.00     0.037 A 
ATOM     15  C15 UNK     1      39.058  18.910  -1.152  1.00  0.00     0.065 A 
ATOM     16  C14 UNK     1      39.781  18.293  -2.174  1.00  0.00     0.037 A 
ATOM     17  C10 UNK     1      40.287  17.006  -1.990  1.00  0.00     0.012 A 
BRANCH  15  18
ATOM     18  O5  UNK     1      38.565  20.166  -1.331  1.00  0.00    -0.361 OA
ATOM     19  H12 UNK     1      37.861  20.324  -0.680  1.00  0.00     0.217 HD
ENDBRANCH  15  18
ENDBRANCH   3  12
BRANCH   8  20
ATOM     20  O3  UNK     1      42.128  10.163  -0.973  1.00  0.00    -0.360 OA
ATOM     21  H10 UNK     1      41.952  10.376  -1.905  1.00  0.00     0.217 HD
ENDBRANCH   8  20
BRANCH  11  22
ATOM     22  O4  UNK     1      39.390  10.306   2.902  1.00  0.00    -0.361 OA
ATOM     23  H11 UNK     1      39.159   9.390   2.667  1.00  0.00     0.217 HD
ENDBRANCH  11  22
TORSDOF 4
ENDMDL
MODEL 6
REMARK VINA RESULT:      -6.1      1.613      6.525
REMARK  4 active torsions:
REMARK  status: ('A' for Active; 'I' for Inactive)
REMARK    1  A    between atoms: O3_3  and  C7_12 
REMARK    2  A    between atoms: O4_4  and  C12_17 
REMARK    3  A    between atoms: O5_5  and  C15_20 
REMARK    4  A    between atoms: C1_6  and  C3_8 
ROOT
ATOM      1  O1  UNK     1      39.350  15.187  -0.358  1.00  0.00    -0.340 OA
ATOM      2  O2  UNK     1      42.531  14.525  -2.862  1.00  0.00    -0.292 OA
ATOM      3  C1  UNK     1      40.279  16.240  -0.659  1.00  0.00     0.169 C 
ATOM      4  C2  UNK     1      40.877  16.063  -2.053  1.00  0.00     0.121 C 
ATOM      5  C4  UNK     1      41.001  13.654  -1.290  1.00  0.00     0.076 A 
ATOM      6  C5  UNK     1      41.578  14.731  -2.121  1.00  0.00     0.167 C 
ATOM      7  C6  UNK     1      39.905  13.939  -0.471  1.00  0.00     0.089 A 
ATOM      8  C7  UNK     1      41.517  12.357  -1.352  1.00  0.00     0.085 A 
ATOM      9  C8  UNK     1      39.301  12.916   0.261  1.00  0.00     0.074 A 
ATOM     10  C11 UNK     1      40.922  11.342  -0.602  1.00  0.00     0.074 A 
ATOM     11  C12 UNK     1      39.813  11.619   0.199  1.00  0.00     0.071 A 
ENDROOT
BRANCH   3  12
ATOM     12  C3  UNK     1      39.554  17.566  -0.541  1.00  0.00    -0.028 A 
ATOM     13  C9  UNK     1      38.701  17.798   0.538  1.00  0.00     0.012 A 
ATOM     14  C13 UNK     1      38.034  19.019   0.646  1.00  0.00     0.037 A 
ATOM     15  C15 UNK     1      38.221  20.005  -0.322  1.00  0.00     0.065 A 
ATOM     16  C14 UNK     1      39.075  19.771  -1.400  1.00  0.00     0.037 A 
ATOM     17  C10 UNK     1      39.742  18.551  -1.508  1.00  0.00     0.012 A 
BRANCH  15  18
ATOM     18  O5  UNK     1      37.570  21.196  -0.216  1.00  0.00    -0.361 OA
ATOM     19  H12 UNK     1      38.104  21.886  -0.643  1.00  0.00     0.217 HD
ENDBRANCH  15  18
ENDBRANCH   3  12
BRANCH   8  20
ATOM     20  O3  UNK     1      42.586  12.026  -2.129  1.00  0.00    -0.360 OA
ATOM     21  H10 UNK     1      42.288  11.485  -2.879  1.00  0.00     0.217 HD
ENDBRANCH   8  20
BRANCH  11  22
ATOM     22  O4  UNK     1      39.232  10.623   0.923  1.00  0.00    -0.361 OA
ATOM     23  H11 UNK     1      38.271  10.775   0.953  1.00  0.00     0.217 HD
ENDBRANCH  11  22
TORSDOF 4
ENDMDL
MODEL 7
REMARK VINA RESULT:      -6.0     22.389     26.256
REMARK  4 active torsions:
REMARK  status: ('A' for Active; 'I' for Inactive)
REMARK    1  A    between atoms: O3_3  and  C7_12 
REMARK    2  A    between atoms: O4_4  and  C12_17 
REMARK    3  A    between atoms: O5_5  and  C15_20 
REMARK    4  A    between atoms: C1_6  and  C3_8 
ROOT
ATOM      1  O1  UNK     1      38.968  -9.875   4.841  1.00  0.00    -0.340 OA
ATOM      2  O2  UNK     1      36.403 -10.686   1.744  1.00  0.00    -0.292 OA
ATOM      3  C1  UNK     1      38.332 -11.158   4.732  1.00  0.00     0.169 C 
ATOM      4  C2  UNK     1      38.059 -11.511   3.271  1.00  0.00     0.121 C 
ATOM      5  C4  UNK     1      37.345  -9.085   3.201  1.00  0.00     0.076 A 
ATOM      6  C5  UNK     1      37.175 -10.452   2.665  1.00  0.00     0.167 C 
ATOM      7  C6  UNK     1      38.249  -8.871   4.245  1.00  0.00     0.089 A 
ATOM      8  C7  UNK     1      36.643  -8.013   2.644  1.00  0.00     0.085 A 
ATOM      9  C8  UNK     1      38.478  -7.575   4.710  1.00  0.00     0.074 A 
ATOM     10  C11 UNK     1      36.860  -6.723   3.127  1.00  0.00     0.074 A 
ATOM     11  C12 UNK     1      37.780  -6.502   4.154  1.00  0.00     0.071 A 
ENDROOT
BRANCH   3  12
ATOM     12  C3  UNK     1      39.225 -12.192   5.386  1.00  0.00    -0.028 A 
ATOM     13  C9  UNK     1      39.535 -12.086   6.741  1.00  0.00     0.012 A 
ATOM     14  C13 UNK     1      40.358 -13.039   7.344  1.00  0.00     0.037 A 
ATOM     15  C15 UNK     1      40.869 -14.096   6.591  1.00  0.00     0.065 A 
ATOM     16  C14 UNK     1      40.558 -14.200   5.234  1.00  0.00     0.037 A 
ATOM     17  C10 UNK     1      39.735 -13.248   4.633  1.00  0.00     0.012 A 
BRANCH  15  18
ATOM     18  O5  UNK     1      41.671 -15.025   7.178  1.00  0.00    -0.361 OA
ATOM     19  H12 UNK     1      42.263 -14.578   7.807  1.00  0.00     0.217 HD
ENDBRANCH  15  18
ENDBRANCH   3  12
BRANCH   8  20
ATOM     20  O3  UNK     1      35.748  -8.167   1.630  1.00  0.00    -0.360 OA
ATOM     21  H10 UNK     1      35.069  -8.812   1.890  1.00  0.00     0.217 HD
ENDBRANCH   8  20
BRANCH  11  22
ATOM     22  O4  UNK     1      37.993  -5.240   4.616  1.00  0.00    -0.361 OA
ATOM     23  H11 UNK     1      38.202  -4.660   3.864  1.00  0.00     0.217 HD
ENDBRANCH  11  22
TORSDOF 4
ENDMDL
MODEL 8
REMARK VINA RESULT:      -6.0     15.975     17.857
REMARK  4 active torsions:
REMARK  status: ('A' for Active; 'I' for Inactive)
REMARK    1  A    between atoms: O3_3  and  C7_12 
REMARK    2  A    between atoms: O4_4  and  C12_17 
REMARK    3  A    between atoms: O5_5  and  C15_20 
REMARK    4  A    between atoms: C1_6  and  C3_8 
ROOT
ATOM      1  O1  UNK     1      44.209   1.758   7.592  1.00  0.00    -0.340 OA
ATOM      2  O2  UNK     1      45.694   0.865  11.310  1.00  0.00    -0.292 OA
ATOM      3  C1  UNK     1      43.525   0.835   8.453  1.00  0.00     0.169 C 
ATOM      4  C2  UNK     1      43.762   1.176   9.922  1.00  0.00     0.121 C 
ATOM      5  C4  UNK     1      46.124   1.513   9.081  1.00  0.00     0.076 A 
ATOM      6  C5  UNK     1      45.242   1.135  10.204  1.00  0.00     0.167 C 
ATOM      7  C6  UNK     1      45.555   1.825   7.843  1.00  0.00     0.089 A 
ATOM      8  C7  UNK     1      47.506   1.600   9.264  1.00  0.00     0.085 A 
ATOM      9  C8  UNK     1      46.367   2.259   6.795  1.00  0.00     0.074 A 
ATOM     10  C11 UNK     1      48.317   2.014   8.206  1.00  0.00     0.074 A 
ATOM     11  C12 UNK     1      47.749   2.348   6.976  1.00  0.00     0.071 A 
ENDROOT
BRANCH   3  12
ATOM     12  C3  UNK     1      42.048   0.870   8.116  1.00  0.00    -0.028 A 
ATOM     13  C9  UNK     1      41.259  -0.259   8.331  1.00  0.00     0.012 A 
ATOM     14  C13 UNK     1      39.899  -0.227   8.021  1.00  0.00     0.037 A 
ATOM     15  C15 UNK     1      39.330   0.933   7.496  1.00  0.00     0.065 A 
ATOM     16  C14 UNK     1      40.122   2.062   7.281  1.00  0.00     0.037 A 
ATOM     17  C10 UNK     1      41.481   2.030   7.592  1.00  0.00     0.012 A 
BRANCH  15  18
ATOM     18  O5  UNK     1      38.004   0.964   7.193  1.00  0.00    -0.361 OA
ATOM     19  H12 UNK     1      37.516   0.446   7.856  1.00  0.00     0.217 HD
ENDBRANCH  15  18
ENDBRANCH   3  12
BRANCH   8  20
ATOM     20  O3  UNK     1      48.113   1.303  10.447  1.00  0.00    -0.360 OA
ATOM     21  H10 UNK     1      47.454   1.312  11.161  1.00  0.00     0.217 HD
ENDBRANCH   8  20
BRANCH  11  22
ATOM     22  O4  UNK     1      48.543   2.759   5.949  1.00  0.00    -0.361 OA
ATOM     23  H11 UNK     1      48.189   3.591   5.590  1.00  0.00     0.217 HD
ENDBRANCH  11  22
TORSDOF 4
ENDMDL
MODEL 9
REMARK VINA RESULT:      -6.0     16.190     18.464
REMARK  4 active torsions:
REMARK  status: ('A' for Active; 'I' for Inactive)
REMARK    1  A    between atoms: O3_3  and  C7_12 
REMARK    2  A    between atoms: O4_4  and  C12_17 
REMARK    3  A    between atoms: O5_5  and  C15_20 
REMARK    4  A    between atoms: C1_6  and  C3_8 
ROOT
ATOM      1  O1  UNK     1      44.037   0.164   9.100  1.00  0.00    -0.340 OA
ATOM      2  O2  UNK     1      40.997   2.224   7.273  1.00  0.00    -0.292 OA
ATOM      3  C1  UNK     1      44.295   0.988   7.953  1.00  0.00     0.169 C 
ATOM      4  C2  UNK     1      43.315   2.157   7.886  1.00  0.00     0.121 C 
ATOM      5  C4  UNK     1      41.675   0.340   8.523  1.00  0.00     0.076 A 
ATOM      6  C5  UNK     1      41.910   1.618   7.821  1.00  0.00     0.167 C 
ATOM      7  C6  UNK     1      42.750  -0.304   9.142  1.00  0.00     0.089 A 
ATOM      8  C7  UNK     1      40.388  -0.198   8.604  1.00  0.00     0.085 A 
ATOM      9  C8  UNK     1      42.531  -1.472   9.874  1.00  0.00     0.074 A 
ATOM     10  C11 UNK     1      40.178  -1.378   9.320  1.00  0.00     0.074 A 
ATOM     11  C12 UNK     1      41.246  -2.011   9.958  1.00  0.00     0.071 A 
ENDROOT
BRANCH   3  12
ATOM     12  C3  UNK     1      45.726   1.478   8.027  1.00  0.00    -0.028 A 
ATOM     13  C9  UNK     1      46.558   1.044   9.060  1.00  0.00     0.012 A 
ATOM     14  C13 UNK     1      47.876   1.496   9.128  1.00  0.00     0.037 A 
ATOM     15  C15 UNK     1      48.362   2.380   8.165  1.00  0.00     0.065 A 
ATOM     16  C14 UNK     1      47.529   2.814   7.133  1.00  0.00     0.037 A 
ATOM     17  C10 UNK     1      46.211   2.362   7.064  1.00  0.00     0.012 A 
BRANCH  15  18
ATOM     18  O5  UNK     1      49.648   2.821   8.233  1.00  0.00    -0.361 OA
ATOM     19  H12 UNK     1      50.037   2.795   7.342  1.00  0.00     0.217 HD
ENDBRANCH  15  18
ENDBRANCH   3  12
BRANCH   8  20
ATOM     20  O3  UNK     1      39.307   0.386   8.015  1.00  0.00    -0.360 OA
ATOM     21  H10 UNK     1      38.742   0.785   8.697  1.00  0.00     0.217 HD
ENDBRANCH   8  20
BRANCH  11  22
ATOM     22  O4  UNK     1      41.034  -3.157  10.662  1.00  0.00    -0.361 OA
ATOM     23  H11 UNK     1      40.269  -3.029  11.250  1.00  0.00     0.217 HD
ENDBRANCH  11  22
TORSDOF 4
ENDMDL
MODEL 10
REMARK VINA RESULT:      -6.0     12.929     15.690
REMARK  4 active torsions:
REMARK  status: ('A' for Active; 'I' for Inactive)
REMARK    1  A    between atoms: O3_3  and  C7_12 
REMARK    2  A    between atoms: O4_4  and  C12_17 
REMARK    3  A    between atoms: O5_5  and  C15_20 
REMARK    4  A    between atoms: C1_6  and  C3_8 
ROOT
ATOM      1  O1  UNK     1      39.033  22.182  11.129  1.00  0.00    -0.340 OA
ATOM      2  O2  UNK     1      37.795  19.654  14.113  1.00  0.00    -0.292 OA
ATOM      3  C1  UNK     1      37.642  22.072  11.467  1.00  0.00     0.169 C 
ATOM      4  C2  UNK     1      37.462  21.722  12.943  1.00  0.00     0.121 C 
ATOM      5  C4  UNK     1      39.366  20.140  12.420  1.00  0.00     0.076 A 
ATOM      6  C5  UNK     1      38.160  20.417  13.228  1.00  0.00     0.167 C 
ATOM      7  C6  UNK     1      39.747  21.051  11.430  1.00  0.00     0.089 A 
ATOM      8  C7  UNK     1      40.140  19.004  12.669  1.00  0.00     0.085 A 
ATOM      9  C8  UNK     1      40.924  20.843  10.712  1.00  0.00     0.074 A 
ATOM     10  C11 UNK     1      41.306  18.790  11.933  1.00  0.00     0.074 A 
ATOM     11  C12 UNK     1      41.701  19.710  10.960  1.00  0.00     0.071 A 
ENDROOT
BRANCH   3  12
ATOM     12  C3  UNK     1      36.962  23.383  11.131  1.00  0.00    -0.028 A 
ATOM     13  C9  UNK     1      37.362  24.558  11.767  1.00  0.00     0.012 A 
ATOM     14  C13 UNK     1      36.736  25.766  11.456  1.00  0.00     0.037 A 
ATOM     15  C15 UNK     1      35.712  25.798  10.511  1.00  0.00     0.065 A 
ATOM     16  C14 UNK     1      35.312  24.621   9.875  1.00  0.00     0.037 A 
ATOM     17  C10 UNK     1      35.939  23.414  10.185  1.00  0.00     0.012 A 
BRANCH  15  18
ATOM     18  O5  UNK     1      35.101  26.976  10.209  1.00  0.00    -0.361 OA
ATOM     19  H12 UNK     1      35.051  27.520  11.012  1.00  0.00     0.217 HD
ENDBRANCH  15  18
ENDBRANCH   3  12
BRANCH   8  20
ATOM     20  O3  UNK     1      39.813  18.083  13.618  1.00  0.00    -0.360 OA
ATOM     21  H10 UNK     1      38.923  17.736  13.440  1.00  0.00     0.217 HD
ENDBRANCH   8  20
BRANCH  11  22
ATOM     22  O4  UNK     1      42.843  19.500  10.250  1.00  0.00    -0.361 OA
ATOM     23  H11 UNK     1      42.743  19.895   9.366  1.00  0.00     0.217 HD
ENDBRANCH  11  22
TORSDOF 4
ENDMDL
MODEL 11
REMARK VINA RESULT:      -5.9     21.907     24.084
REMARK  4 active torsions:
REMARK  status: ('A' for Active; 'I' for Inactive)
REMARK    1  A    between atoms: O3_3  and  C7_12 
REMARK    2  A    between atoms: O4_4  and  C12_17 
REMARK    3  A    between atoms: O5_5  and  C15_20 
REMARK    4  A    between atoms: C1_6  and  C3_8 
ROOT
ATOM      1  O1  UNK     1      39.176  -8.512  -5.049  1.00  0.00    -0.340 OA
ATOM      2  O2  UNK     1      36.672  -5.334  -4.374  1.00  0.00    -0.292 OA
ATOM      3  C1  UNK     1      39.332  -7.286  -5.780  1.00  0.00     0.169 C 
ATOM      4  C2  UNK     1      38.874  -6.089  -4.949  1.00  0.00     0.121 C 
ATOM      5  C4  UNK     1      36.985  -7.674  -4.384  1.00  0.00     0.076 A 
ATOM      6  C5  UNK     1      37.427  -6.276  -4.573  1.00  0.00     0.167 C 
ATOM      7  C6  UNK     1      37.892  -8.712  -4.612  1.00  0.00     0.089 A 
ATOM      8  C7  UNK     1      35.689  -7.953  -3.942  1.00  0.00     0.085 A 
ATOM      9  C8  UNK     1      37.513 -10.032  -4.363  1.00  0.00     0.074 A 
ATOM     10  C11 UNK     1      35.309  -9.276  -3.715  1.00  0.00     0.074 A 
ATOM     11  C12 UNK     1      36.220 -10.313  -3.920  1.00  0.00     0.071 A 
ENDROOT
BRANCH   3  12
ATOM     12  C3  UNK     1      40.787  -7.149  -6.180  1.00  0.00    -0.028 A 
ATOM     13  C9  UNK     1      41.669  -6.442  -5.363  1.00  0.00     0.012 A 
ATOM     14  C13 UNK     1      43.009  -6.316  -5.730  1.00  0.00     0.037 A 
ATOM     15  C15 UNK     1      43.466  -6.896  -6.913  1.00  0.00     0.065 A 
ATOM     16  C14 UNK     1      42.582  -7.603  -7.730  1.00  0.00     0.037 A 
ATOM     17  C10 UNK     1      41.243  -7.730  -7.362  1.00  0.00     0.012 A 
BRANCH  15  18
ATOM     18  O5  UNK     1      44.773  -6.773  -7.272  1.00  0.00    -0.361 OA
ATOM     19  H12 UNK     1      44.834  -6.763  -8.242  1.00  0.00     0.217 HD
ENDBRANCH  15  18
ENDBRANCH   3  12
BRANCH   8  20
ATOM     20  O3  UNK     1      34.765  -6.980  -3.709  1.00  0.00    -0.360 OA
ATOM     21  H10 UNK     1      35.216  -6.134  -3.550  1.00  0.00     0.217 HD
ENDBRANCH   8  20
BRANCH  11  22
ATOM     22  O4  UNK     1      35.846 -11.602  -3.690  1.00  0.00    -0.361 OA
ATOM     23  H11 UNK     1      36.389 -11.964  -2.968  1.00  0.00     0.217 HD
ENDBRANCH  11  22
TORSDOF 4
ENDMDL
MODEL 12
REMARK VINA RESULT:      -5.9     15.939     18.115
REMARK  4 active torsions:
REMARK  status: ('A' for Active; 'I' for Inactive)
REMARK    1  A    between atoms: O3_3  and  C7_12 
REMARK    2  A    between atoms: O4_4  and  C12_17 
REMARK    3  A    between atoms: O5_5  and  C15_20 
REMARK    4  A    between atoms: C1_6  and  C3_8 
ROOT
ATOM      1  O1  UNK     1      42.145  -0.169   8.574  1.00  0.00    -0.340 OA
ATOM      2  O2  UNK     1      39.358   2.453   7.096  1.00  0.00    -0.292 OA
ATOM      3  C1  UNK     1      42.528   0.871   7.660  1.00  0.00     0.169 C 
ATOM      4  C2  UNK     1      41.620   2.090   7.806  1.00  0.00     0.121 C 
ATOM      5  C4  UNK     1      39.842   0.295   7.920  1.00  0.00     0.076 A 
ATOM      6  C5  UNK     1      40.195   1.678   7.541  1.00  0.00     0.167 C 
ATOM      7  C6  UNK     1      40.834  -0.544   8.437  1.00  0.00     0.089 A 
ATOM      8  C7  UNK     1      38.525  -0.157   7.805  1.00  0.00     0.085 A 
ATOM      9  C8  UNK     1      40.500  -1.827   8.871  1.00  0.00     0.074 A 
ATOM     10  C11 UNK     1      38.202  -1.449   8.221  1.00  0.00     0.074 A 
ATOM     11  C12 UNK     1      39.185  -2.281   8.758  1.00  0.00     0.071 A 
ENDROOT
BRANCH   3  12
ATOM     12  C3  UNK     1      43.975   1.232   7.925  1.00  0.00    -0.028 A 
ATOM     13  C9  UNK     1      44.609   0.766   9.076  1.00  0.00     0.012 A 
ATOM     14  C13 UNK     1      45.943   1.098   9.319  1.00  0.00     0.037 A 
ATOM     15  C15 UNK     1      46.639   1.896   8.412  1.00  0.00     0.065 A 
ATOM     16  C14 UNK     1      46.003   2.363   7.261  1.00  0.00     0.037 A 
ATOM     17  C10 UNK     1      44.671   2.029   7.017  1.00  0.00     0.012 A 
BRANCH  15  18
ATOM     18  O5  UNK     1      47.939   2.221   8.650  1.00  0.00    -0.361 OA
ATOM     19  H12 UNK     1      48.506   1.486   8.359  1.00  0.00     0.217 HD
ENDBRANCH  15  18
ENDBRANCH   3  12
BRANCH   8  20
ATOM     20  O3  UNK     1      37.522   0.616   7.304  1.00  0.00    -0.360 OA
ATOM     21  H10 UNK     1      37.786   1.551   7.336  1.00  0.00     0.217 HD
ENDBRANCH   8  20
BRANCH  11  22
ATOM     22  O4  UNK     1      38.862  -3.538   9.170  1.00  0.00    -0.361 OA
ATOM     23  H11 UNK     1      39.677  -4.064   9.247  1.00  0.00     0.217 HD
ENDBRANCH  11  22
TORSDOF 4
ENDMDL
MODEL 13
REMARK VINA RESULT:      -5.8     16.080     18.304
REMARK  4 active torsions:
REMARK  status: ('A' for Active; 'I' for Inactive)
REMARK    1  A    between atoms: O3_3  and  C7_12 
REMARK    2  A    between atoms: O4_4  and  C12_17 
REMARK    3  A    between atoms: O5_5  and  C15_20 
REMARK    4  A    between atoms: C1_6  and  C3_8 
ROOT
ATOM      1  O1  UNK     1      42.554   0.946   7.963  1.00  0.00    -0.340 OA
ATOM      2  O2  UNK     1      41.005  -1.728  10.660  1.00  0.00    -0.292 OA
ATOM      3  C1  UNK     1      43.233   0.673   9.198  1.00  0.00     0.169 C 
ATOM      4  C2  UNK     1      42.960  -0.754   9.670  1.00  0.00     0.121 C 
ATOM      5  C4  UNK     1      40.612  -0.150   8.949  1.00  0.00     0.076 A 
ATOM      6  C5  UNK     1      41.476  -0.936   9.854  1.00  0.00     0.167 C 
ATOM      7  C6  UNK     1      41.202   0.731   8.039  1.00  0.00     0.089 A 
ATOM      8  C7  UNK     1      39.225  -0.316   8.972  1.00  0.00     0.085 A 
ATOM      9  C8  UNK     1      40.406   1.423   7.126  1.00  0.00     0.074 A 
ATOM     10  C11 UNK     1      38.431   0.394   8.071  1.00  0.00     0.074 A 
ATOM     11  C12 UNK     1      39.020   1.258   7.145  1.00  0.00     0.071 A 
ENDROOT
BRANCH   3  12
ATOM     12  C3  UNK     1      44.716   0.905   8.991  1.00  0.00    -0.028 A 
ATOM     13  C9  UNK     1      45.160   1.617   7.877  1.00  0.00     0.012 A 
ATOM     14  C13 UNK     1      46.525   1.831   7.687  1.00  0.00     0.037 A 
ATOM     15  C15 UNK     1      47.445   1.333   8.608  1.00  0.00     0.065 A 
ATOM     16  C14 UNK     1      47.000   0.620   9.722  1.00  0.00     0.037 A 
ATOM     17  C10 UNK     1      45.635   0.407   9.913  1.00  0.00     0.012 A 
BRANCH  15  18
ATOM     18  O5  UNK     1      48.777   1.541   8.422  1.00  0.00    -0.361 OA
ATOM     19  H12 UNK     1      49.130   2.027   9.187  1.00  0.00     0.217 HD
ENDBRANCH  15  18
ENDBRANCH   3  12
BRANCH   8  20
ATOM     20  O3  UNK     1      38.598  -1.157   9.841  1.00  0.00    -0.360 OA
ATOM     21  H10 UNK     1      37.903  -0.674  10.317  1.00  0.00     0.217 HD
ENDBRANCH   8  20
BRANCH  11  22
ATOM     22  O4  UNK     1      38.241   1.942   6.263  1.00  0.00    -0.361 OA
ATOM     23  H11 UNK     1      38.392   2.896   6.382  1.00  0.00     0.217 HD
ENDBRANCH  11  22
TORSDOF 4
ENDMDL
MODEL 14
REMARK VINA RESULT:      -5.8     15.231     17.855
REMARK  4 active torsions:
REMARK  status: ('A' for Active; 'I' for Inactive)
REMARK    1  A    between atoms: O3_3  and  C7_12 
REMARK    2  A    between atoms: O4_4  and  C12_17 
REMARK    3  A    between atoms: O5_5  and  C15_20 
REMARK    4  A    between atoms: C1_6  and  C3_8 
ROOT
ATOM      1  O1  UNK     1      41.987   1.220   9.414  1.00  0.00    -0.340 OA
ATOM      2  O2  UNK     1      38.948   1.371   6.663  1.00  0.00    -0.292 OA
ATOM      3  C1  UNK     1      41.926   2.278   8.446  1.00  0.00     0.169 C 
ATOM      4  C2  UNK     1      40.481   2.582   8.055  1.00  0.00     0.121 C 
ATOM      5  C4  UNK     1      40.342   0.056   8.041  1.00  0.00     0.076 A 
ATOM      6  C5  UNK     1      39.852   1.335   7.488  1.00  0.00     0.167 C 
ATOM      7  C6  UNK     1      41.368   0.072   8.991  1.00  0.00     0.089 A 
ATOM      8  C7  UNK     1      39.759  -1.153   7.653  1.00  0.00     0.085 A 
ATOM      9  C8  UNK     1      41.788  -1.121   9.579  1.00  0.00     0.074 A 
ATOM     10  C11 UNK     1      40.198  -2.346   8.230  1.00  0.00     0.074 A 
ATOM     11  C12 UNK     1      41.206  -2.330   9.195  1.00  0.00     0.071 A 
ENDROOT
BRANCH   3  12
ATOM     12  C3  UNK     1      42.603   3.501   9.030  1.00  0.00    -0.028 A 
ATOM     13  C9  UNK     1      41.883   4.368   9.851  1.00  0.00     0.012 A 
ATOM     14  C13 UNK     1      42.506   5.495  10.389  1.00  0.00     0.037 A 
ATOM     15  C15 UNK     1      43.847   5.753  10.106  1.00  0.00     0.065 A 
ATOM     16  C14 UNK     1      44.566   4.884   9.283  1.00  0.00     0.037 A 
ATOM     17  C10 UNK     1      43.943   3.758   8.747  1.00  0.00     0.012 A 
BRANCH  15  18
ATOM     18  O5  UNK     1      44.454   6.852  10.630  1.00  0.00    -0.361 OA
ATOM     19  H12 UNK     1      44.192   7.633  10.115  1.00  0.00     0.217 HD
ENDBRANCH  15  18
ENDBRANCH   3  12
BRANCH   8  20
ATOM     20  O3  UNK     1      38.761  -1.226   6.730  1.00  0.00    -0.360 OA
ATOM     21  H10 UNK     1      38.403  -0.338   6.566  1.00  0.00     0.217 HD
ENDBRANCH   8  20
BRANCH  11  22
ATOM     22  O4  UNK     1      41.624  -3.496   9.760  1.00  0.00    -0.361 OA
ATOM     23  H11 UNK     1      40.849  -4.057   9.937  1.00  0.00     0.217 HD
ENDBRANCH  11  22
TORSDOF 4
ENDMDL
MODEL 15
REMARK VINA RESULT:      -5.8     12.795     15.385
REMARK  4 active torsions:
REMARK  status: ('A' for Active; 'I' for Inactive)
REMARK    1  A    between atoms: O3_3  and  C7_12 
REMARK    2  A    between atoms: O4_4  and  C12_17 
REMARK    3  A    between atoms: O5_5  and  C15_20 
REMARK    4  A    between atoms: C1_6  and  C3_8 
ROOT
ATOM      1  O1  UNK     1      36.574  23.367  10.628  1.00  0.00    -0.340 OA
ATOM      2  O2  UNK     1      34.502  23.028  14.152  1.00  0.00    -0.292 OA
ATOM      3  C1  UNK     1      37.225  22.903  11.820  1.00  0.00     0.169 C 
ATOM      4  C2  UNK     1      36.241  22.177  12.735  1.00  0.00     0.121 C 
ATOM      5  C4  UNK     1      34.765  24.123  12.077  1.00  0.00     0.076 A 
ATOM      6  C5  UNK     1      35.123  23.119  13.100  1.00  0.00     0.167 C 
ATOM      7  C6  UNK     1      35.498  24.175  10.888  1.00  0.00     0.089 A 
ATOM      8  C7  UNK     1      33.680  24.981  12.276  1.00  0.00     0.085 A 
ATOM      9  C8  UNK     1      35.123  25.066   9.881  1.00  0.00     0.074 A 
ATOM     10  C11 UNK     1      33.324  25.884  11.274  1.00  0.00     0.074 A 
ATOM     11  C12 UNK     1      34.039  25.923  10.077  1.00  0.00     0.071 A 
ENDROOT
BRANCH   3  12
ATOM     12  C3  UNK     1      38.368  21.994  11.417  1.00  0.00    -0.028 A 
ATOM     13  C9  UNK     1      39.326  21.621  12.360  1.00  0.00     0.012 A 
ATOM     14  C13 UNK     1      40.379  20.783  11.989  1.00  0.00     0.037 A 
ATOM     15  C15 UNK     1      40.473  20.320  10.678  1.00  0.00     0.065 A 
ATOM     16  C14 UNK     1      39.514  20.693   9.735  1.00  0.00     0.037 A 
ATOM     17  C10 UNK     1      38.461  21.530  10.106  1.00  0.00     0.012 A 
BRANCH  15  18
ATOM     18  O5  UNK     1      41.500  19.503  10.316  1.00  0.00    -0.361 OA
ATOM     19  H12 UNK     1      41.138  18.726   9.858  1.00  0.00     0.217 HD
ENDBRANCH  15  18
ENDBRANCH   3  12
BRANCH   8  20
ATOM     20  O3  UNK     1      32.936  24.975  13.417  1.00  0.00    -0.360 OA
ATOM     21  H10 UNK     1      32.317  25.724  13.405  1.00  0.00     0.217 HD
ENDBRANCH   8  20
BRANCH  11  22
ATOM     22  O4  UNK     1      33.682  26.800   9.099  1.00  0.00    -0.361 OA
ATOM     23  H11 UNK     1      33.842  26.389   8.232  1.00  0.00     0.217 HD
ENDBRANCH  11  22
TORSDOF 4
ENDMDL
MODEL 16
REMARK VINA RESULT:      -5.8     16.165     19.302
REMARK  4 active torsions:
REMARK  status: ('A' for Active; 'I' for Inactive)
REMARK    1  A    between atoms: O3_3  and  C7_12 
REMARK    2  A    between atoms: O4_4  and  C12_17 
REMARK    3  A    between atoms: O5_5  and  C15_20 
REMARK    4  A    between atoms: C1_6  and  C3_8 
ROOT
ATOM      1  O1  UNK     1      41.439  -0.269   8.002  1.00  0.00    -0.340 OA
ATOM      2  O2  UNK     1      41.616  -2.613  11.364  1.00  0.00    -0.292 OA
ATOM      3  C1  UNK     1      42.358   0.037   9.063  1.00  0.00     0.169 C 
ATOM      4  C2  UNK     1      42.792  -1.231   9.795  1.00  0.00     0.121 C 
ATOM      5  C4  UNK     1      40.327  -1.756   9.582  1.00  0.00     0.076 A 
ATOM      6  C5  UNK     1      41.574  -1.915  10.358  1.00  0.00     0.167 C 
ATOM      7  C6  UNK     1      40.336  -0.958   8.434  1.00  0.00     0.089 A 
ATOM      8  C7  UNK     1      39.163  -2.427   9.965  1.00  0.00     0.085 A 
ATOM      9  C8  UNK     1      39.188  -0.860   7.648  1.00  0.00     0.074 A 
ATOM     10  C11 UNK     1      38.011  -2.308   9.186  1.00  0.00     0.074 A 
ATOM     11  C12 UNK     1      38.024  -1.531   8.027  1.00  0.00     0.071 A 
ENDROOT
BRANCH   3  12
ATOM     12  C3  UNK     1      43.549   0.761   8.470  1.00  0.00    -0.028 A 
ATOM     13  C9  UNK     1      44.786   0.708   9.114  1.00  0.00     0.012 A 
ATOM     14  C13 UNK     1      45.883   1.374   8.567  1.00  0.00     0.037 A 
ATOM     15  C15 UNK     1      45.744   2.092   7.380  1.00  0.00     0.065 A 
ATOM     16  C14 UNK     1      44.506   2.144   6.737  1.00  0.00     0.037 A 
ATOM     17  C10 UNK     1      43.410   1.477   7.283  1.00  0.00     0.012 A 
BRANCH  15  18
ATOM     18  O5  UNK     1      46.815   2.742   6.848  1.00  0.00    -0.361 OA
ATOM     19  H12 UNK     1      46.819   3.659   7.171  1.00  0.00     0.217 HD
ENDBRANCH  15  18
ENDBRANCH   3  12
BRANCH   8  20
ATOM     20  O3  UNK     1      39.098  -3.213  11.076  1.00  0.00    -0.360 OA
ATOM     21  H10 UNK     1      39.116  -4.148  10.815  1.00  0.00     0.217 HD
ENDBRANCH   8  20
BRANCH  11  22
ATOM     22  O4  UNK     1      36.900  -1.425   7.267  1.00  0.00    -0.361 OA
ATOM     23  H11 UNK     1      36.343  -2.209   7.416  1.00  0.00     0.217 HD
ENDBRANCH  11  22
TORSDOF 4
ENDMDL
MODEL 17
REMARK VINA RESULT:      -5.7     20.547     22.150
REMARK  4 active torsions:
REMARK  status: ('A' for Active; 'I' for Inactive)
REMARK    1  A    between atoms: O3_3  and  C7_12 
REMARK    2  A    between atoms: O4_4  and  C12_17 
REMARK    3  A    between atoms: O5_5  and  C15_20 
REMARK    4  A    between atoms: C1_6  and  C3_8 
ROOT
ATOM      1  O1  UNK     1      31.608  -1.822  -9.185  1.00  0.00    -0.340 OA
ATOM      2  O2  UNK     1      28.476  -3.749 -11.001  1.00  0.00    -0.292 OA
ATOM      3  C1  UNK     1      31.844  -2.895 -10.109  1.00  0.00     0.169 C 
ATOM      4  C2  UNK     1      30.738  -2.967 -11.160  1.00  0.00     0.121 C 
ATOM      5  C4  UNK     1      29.287  -2.566  -9.126  1.00  0.00     0.076 A 
ATOM      6  C5  UNK     1      29.414  -3.171 -10.468  1.00  0.00     0.167 C 
ATOM      7  C6  UNK     1      30.386  -1.906  -8.570  1.00  0.00     0.089 A 
ATOM      8  C7  UNK     1      28.071  -2.615  -8.439  1.00  0.00     0.085 A 
ATOM      9  C8  UNK     1      30.259  -1.263  -7.338  1.00  0.00     0.074 A 
ATOM     10  C11 UNK     1      27.956  -1.989  -7.198  1.00  0.00     0.074 A 
ATOM     11  C12 UNK     1      29.045  -1.309  -6.650  1.00  0.00     0.071 A 
ENDROOT
BRANCH   3  12
ATOM     12  C3  UNK     1      33.197  -2.683 -10.755  1.00  0.00    -0.028 A 
ATOM     13  C9  UNK     1      34.190  -3.654 -10.627  1.00  0.00     0.012 A 
ATOM     14  C13 UNK     1      35.436  -3.458 -11.223  1.00  0.00     0.037 A 
ATOM     15  C15 UNK     1      35.689  -2.293 -11.944  1.00  0.00     0.065 A 
ATOM     16  C14 UNK     1      34.695  -1.321 -12.071  1.00  0.00     0.037 A 
ATOM     17  C10 UNK     1      33.449  -1.517 -11.477  1.00  0.00     0.012 A 
BRANCH  15  18
ATOM     18  O5  UNK     1      36.906  -2.102 -12.525  1.00  0.00    -0.361 OA
ATOM     19  H12 UNK     1      36.859  -1.322 -13.104  1.00  0.00     0.217 HD
ENDBRANCH  15  18
ENDBRANCH   3  12
BRANCH   8  20
ATOM     20  O3  UNK     1      26.972  -3.249  -8.934  1.00  0.00    -0.360 OA
ATOM     21  H10 UNK     1      27.173  -4.189  -9.073  1.00  0.00     0.217 HD
ENDBRANCH   8  20
BRANCH  11  22
ATOM     22  O4  UNK     1      28.924  -0.693  -5.442  1.00  0.00    -0.361 OA
ATOM     23  H11 UNK     1      29.075  -1.347  -4.738  1.00  0.00     0.217 HD
ENDBRANCH  11  22
TORSDOF 4
ENDMDL
MODEL 18
REMARK VINA RESULT:      -5.7     15.868     16.748
REMARK  4 active torsions:
REMARK  status: ('A' for Active; 'I' for Inactive)
REMARK    1  A    between atoms: O3_3  and  C7_12 
REMARK    2  A    between atoms: O4_4  and  C12_17 
REMARK    3  A    between atoms: O5_5  and  C15_20 
REMARK    4  A    between atoms: C1_6  and  C3_8 
ROOT
ATOM      1  O1  UNK     1      43.514   1.934   7.426  1.00  0.00    -0.340 OA
ATOM      2  O2  UNK     1      44.086   4.766  10.337  1.00  0.00    -0.292 OA
ATOM      3  C1  UNK     1      42.666   1.977   8.584  1.00  0.00     0.169 C 
ATOM      4  C2  UNK     1      42.536   3.403   9.115  1.00  0.00     0.121 C 
ATOM      5  C4  UNK     1      45.022   3.412   8.645  1.00  0.00     0.076 A 
ATOM      6  C5  UNK     1      43.905   3.924   9.466  1.00  0.00     0.167 C 
ATOM      7  C6  UNK     1      44.758   2.461   7.656  1.00  0.00     0.089 A 
ATOM      8  C7  UNK     1      46.317   3.902   8.826  1.00  0.00     0.085 A 
ATOM      9  C8  UNK     1      45.788   2.024   6.821  1.00  0.00     0.074 A 
ATOM     10  C11 UNK     1      47.347   3.447   8.002  1.00  0.00     0.074 A 
ATOM     11  C12 UNK     1      47.083   2.514   6.998  1.00  0.00     0.071 A 
ENDROOT
BRANCH   3  12
ATOM     12  C3  UNK     1      41.313   1.409   8.208  1.00  0.00    -0.028 A 
ATOM     13  C9  UNK     1      40.378   2.212   7.556  1.00  0.00     0.012 A 
ATOM     14  C13 UNK     1      39.132   1.688   7.210  1.00  0.00     0.037 A 
ATOM     15  C15 UNK     1      38.822   0.363   7.515  1.00  0.00     0.065 A 
ATOM     16  C14 UNK     1      39.759  -0.439   8.168  1.00  0.00     0.037 A 
ATOM     17  C10 UNK     1      41.005   0.084   8.513  1.00  0.00     0.012 A 
BRANCH  15  18
ATOM     18  O5  UNK     1      37.607  -0.147   7.178  1.00  0.00    -0.361 OA
ATOM     19  H12 UNK     1      36.913   0.374   7.617  1.00  0.00     0.217 HD
ENDBRANCH  15  18
ENDBRANCH   3  12
BRANCH   8  20
ATOM     20  O3  UNK     1      46.629   4.825   9.778  1.00  0.00    -0.360 OA
ATOM     21  H10 UNK     1      46.848   4.373  10.610  1.00  0.00     0.217 HD
ENDBRANCH   8  20
BRANCH  11  22
ATOM     22  O4  UNK     1      48.090   2.079   6.192  1.00  0.00    -0.361 OA
ATOM     23  H11 UNK     1      48.924   2.092   6.694  1.00  0.00     0.217 HD
ENDBRANCH  11  22
TORSDOF 4
ENDMDL
MODEL 19
REMARK VINA RESULT:      -5.7     16.922     18.449
REMARK  4 active torsions:
REMARK  status: ('A' for Active; 'I' for Inactive)
REMARK    1  A    between atoms: O3_3  and  C7_12 
REMARK    2  A    between atoms: O4_4  and  C12_17 
REMARK    3  A    between atoms: O5_5  and  C15_20 
REMARK    4  A    between atoms: C1_6  and  C3_8 
ROOT
ATOM      1  O1  UNK     1      46.300   1.918   9.735  1.00  0.00    -0.340 OA
ATOM      2  O2  UNK     1      44.054   1.005   6.426  1.00  0.00    -0.292 OA
ATOM      3  C1  UNK     1      46.931   1.569   8.494  1.00  0.00     0.169 C 
ATOM      4  C2  UNK     1      46.064   1.977   7.304  1.00  0.00     0.121 C 
ATOM      5  C4  UNK     1      44.241   1.027   8.780  1.00  0.00     0.076 A 
ATOM      6  C5  UNK     1      44.729   1.285   7.409  1.00  0.00     0.167 C 
ATOM      7  C6  UNK     1      45.046   1.379   9.867  1.00  0.00     0.089 A 
ATOM      8  C7  UNK     1      42.974   0.477   8.989  1.00  0.00     0.085 A 
ATOM      9  C8  UNK     1      44.568   1.212  11.167  1.00  0.00     0.074 A 
ATOM     10  C11 UNK     1      42.509   0.294  10.292  1.00  0.00     0.074 A 
ATOM     11  C12 UNK     1      43.302   0.665  11.379  1.00  0.00     0.071 A 
ENDROOT
BRANCH   3  12
ATOM     12  C3  UNK     1      48.285   2.245   8.438  1.00  0.00    -0.028 A 
ATOM     13  C9  UNK     1      49.236   1.980   9.424  1.00  0.00     0.012 A 
ATOM     14  C13 UNK     1      50.484   2.603   9.372  1.00  0.00     0.037 A 
ATOM     15  C15 UNK     1      50.779   3.489   8.338  1.00  0.00     0.065 A 
ATOM     16  C14 UNK     1      49.827   3.754   7.353  1.00  0.00     0.037 A 
ATOM     17  C10 UNK     1      48.580   3.131   7.403  1.00  0.00     0.012 A 
BRANCH  15  18
ATOM     18  O5  UNK     1      51.996   4.097   8.288  1.00  0.00    -0.361 OA
ATOM     19  H12 UNK     1      52.091   4.677   9.063  1.00  0.00     0.217 HD
ENDBRANCH  15  18
ENDBRANCH   3  12
BRANCH   8  20
ATOM     20  O3  UNK     1      42.151   0.113   7.966  1.00  0.00    -0.360 OA
ATOM     21  H10 UNK     1      41.328  -0.257   8.326  1.00  0.00     0.217 HD
ENDBRANCH   8  20
BRANCH  11  22
ATOM     22  O4  UNK     1      42.840   0.491  12.648  1.00  0.00    -0.361 OA
ATOM     23  H11 UNK     1      41.991   0.956  12.741  1.00  0.00     0.217 HD
ENDBRANCH  11  22
TORSDOF 4
ENDMDL
MODEL 20
REMARK VINA RESULT:      -5.7     19.025     22.539
REMARK  4 active torsions:
REMARK  status: ('A' for Active; 'I' for Inactive)
REMARK    1  A    between atoms: O3_3  and  C7_12 
REMARK    2  A    between atoms: O4_4  and  C12_17 
REMARK    3  A    between atoms: O5_5  and  C15_20 
REMARK    4  A    between atoms: C1_6  and  C3_8 
ROOT
ATOM      1  O1  UNK     1      37.776  -5.152   5.446  1.00  0.00    -0.340 OA
ATOM      2  O2  UNK     1      37.382  -6.390   9.336  1.00  0.00    -0.292 OA
ATOM      3  C1  UNK     1      38.003  -6.523   5.806  1.00  0.00     0.169 C 
ATOM      4  C2  UNK     1      37.151  -6.922   7.009  1.00  0.00     0.121 C 
ATOM      5  C4  UNK     1      37.901  -4.650   7.829  1.00  0.00     0.076 A 
ATOM      6  C5  UNK     1      37.492  -6.027   8.172  1.00  0.00     0.167 C 
ATOM      7  C6  UNK     1      37.999  -4.284   6.483  1.00  0.00     0.089 A 
ATOM      8  C7  UNK     1      38.147  -3.712   8.835  1.00  0.00     0.085 A 
ATOM      9  C8  UNK     1      38.309  -2.966   6.143  1.00  0.00     0.074 A 
ATOM     10  C11 UNK     1      38.477  -2.401   8.489  1.00  0.00     0.074 A 
ATOM     11  C12 UNK     1      38.553  -2.027   7.146  1.00  0.00     0.071 A 
ENDROOT
BRANCH   3  12
ATOM     12  C3  UNK     1      37.692  -7.391   4.604  1.00  0.00    -0.028 A 
ATOM     13  C9  UNK     1      38.543  -8.444   4.268  1.00  0.00     0.012 A 
ATOM     14  C13 UNK     1      38.256  -9.245   3.162  1.00  0.00     0.037 A 
ATOM     15  C15 UNK     1      37.121  -8.991   2.393  1.00  0.00     0.065 A 
ATOM     16  C14 UNK     1      36.271  -7.937   2.730  1.00  0.00     0.037 A 
ATOM     17  C10 UNK     1      36.557  -7.138   3.837  1.00  0.00     0.012 A 
BRANCH  15  18
ATOM     18  O5  UNK     1      36.841  -9.771   1.313  1.00  0.00    -0.361 OA
ATOM     19  H12 UNK     1      37.353  -9.450   0.551  1.00  0.00     0.217 HD
ENDBRANCH  15  18
ENDBRANCH   3  12
BRANCH   8  20
ATOM     20  O3  UNK     1      38.071  -4.017  10.160  1.00  0.00    -0.360 OA
ATOM     21  H10 UNK     1      37.144  -3.976  10.450  1.00  0.00     0.217 HD
ENDBRANCH   8  20
BRANCH  11  22
ATOM     22  O4  UNK     1      38.867  -0.745   6.814  1.00  0.00    -0.361 OA
ATOM     23  H11 UNK     1      39.628  -0.753   6.207  1.00  0.00     0.217 HD
ENDBRANCH  11  22
TORSDOF 4
ENDMDL
