MODEL 1
REMARK VINA RESULT:      -6.0      0.000      0.000
REMARK  4 active torsions:
REMARK  status: ('A' for Active; 'I' for Inactive)
REMARK    1  A    between atoms: O3_3  and  C7_12 
REMARK    2  A    between atoms: O4_4  and  C12_17 
REMARK    3  A    between atoms: O5_5  and  C15_20 
REMARK    4  A    between atoms: C1_6  and  C3_8 
ROOT
ATOM      1  O1  UNK     1      44.079   1.678   7.606  1.00  0.00    -0.340 OA
ATOM      2  O2  UNK     1      45.515   0.896  11.369  1.00  0.00    -0.292 OA
ATOM      3  C1  UNK     1      43.380   0.785   8.488  1.00  0.00     0.169 C 
ATOM      4  C2  UNK     1      43.602   1.172   9.948  1.00  0.00     0.121 C 
ATOM      5  C4  UNK     1      45.975   1.472   9.126  1.00  0.00     0.076 A 
ATOM      6  C5  UNK     1      45.078   1.133  10.250  1.00  0.00     0.167 C 
ATOM      7  C6  UNK     1      45.422   1.747   7.872  1.00  0.00     0.089 A 
ATOM      8  C7  UNK     1      47.356   1.558   9.323  1.00  0.00     0.085 A 
ATOM      9  C8  UNK     1      46.250   2.143   6.821  1.00  0.00     0.074 A 
ATOM     10  C11 UNK     1      48.181   1.934   8.262  1.00  0.00     0.074 A 
ATOM     11  C12 UNK     1      47.629   2.231   7.015  1.00  0.00     0.071 A 
ENDROOT
BRANCH   3  12
ATOM     12  C3  UNK     1      41.908   0.816   8.132  1.00  0.00    -0.028 A 
ATOM     13  C9  UNK     1      41.126  -0.324   8.309  1.00  0.00     0.012 A 
ATOM     14  C13 UNK     1      39.769  -0.295   7.981  1.00  0.00     0.037 A 
ATOM     15  C15 UNK     1      39.198   0.872   7.477  1.00  0.00     0.065 A 
ATOM     16  C14 UNK     1      39.983   2.013   7.300  1.00  0.00     0.037 A 
ATOM     17  C10 UNK     1      41.338   1.984   7.628  1.00  0.00     0.012 A 
BRANCH  15  18
ATOM     18  O5  UNK     1      37.875   0.900   7.157  1.00  0.00    -0.361 OA
ATOM     19  H12 UNK     1      37.438   0.130   7.559  1.00  0.00     0.217 HD
ENDBRANCH  15  18
ENDBRANCH   3  12
BRANCH   8  20
ATOM     20  O3  UNK     1      47.946   1.296  10.522  1.00  0.00    -0.360 OA
ATOM     21  H10 UNK     1      47.801   2.043  11.126  1.00  0.00     0.217 HD
ENDBRANCH   8  20
BRANCH  11  22
ATOM     22  O4  UNK     1      48.438   2.606   5.986  1.00  0.00    -0.361 OA
ATOM     23  H11 UNK     1      48.425   1.910   5.305  1.00  0.00     0.217 HD
ENDBRANCH  11  22
TORSDOF 4
ENDMDL
MODEL 2
REMARK VINA RESULT:      -6.0      0.066      1.082
REMARK  4 active torsions:
REMARK  status: ('A' for Active; 'I' for Inactive)
REMARK    1  A    between atoms: O3_3  and  C7_12 
REMARK    2  A    between atoms: O4_4  and  C12_17 
REMARK    3  A    between atoms: O5_5  and  C15_20 
REMARK    4  A    between atoms: C1_6  and  C3_8 
ROOT
ATOM      1  O1  UNK     1      44.143   1.678   7.602  1.00  0.00    -0.340 OA
ATOM      2  O2  UNK     1      45.586   0.880  11.358  1.00  0.00    -0.292 OA
ATOM      3  C1  UNK     1      43.443   0.785   8.483  1.00  0.00     0.169 C 
ATOM      4  C2  UNK     1      43.669   1.166   9.944  1.00  0.00     0.121 C 
ATOM      5  C4  UNK     1      46.042   1.461   9.116  1.00  0.00     0.076 A 
ATOM      6  C5  UNK     1      45.146   1.122  10.241  1.00  0.00     0.167 C 
ATOM      7  C6  UNK     1      45.486   1.741   7.864  1.00  0.00     0.089 A 
ATOM      8  C7  UNK     1      47.423   1.542   9.310  1.00  0.00     0.085 A 
ATOM      9  C8  UNK     1      46.312   2.138   6.812  1.00  0.00     0.074 A 
ATOM     10  C11 UNK     1      48.246   1.919   8.248  1.00  0.00     0.074 A 
ATOM     11  C12 UNK     1      47.693   2.222   7.003  1.00  0.00     0.071 A 
ENDROOT
BRANCH   3  12
ATOM     12  C3  UNK     1      41.970   0.821   8.131  1.00  0.00    -0.028 A 
ATOM     13  C9  UNK     1      41.406   1.989   7.618  1.00  0.00     0.012 A 
ATOM     14  C13 UNK     1      40.049   2.022   7.293  1.00  0.00     0.037 A 
ATOM     15  C15 UNK     1      39.259   0.890   7.482  1.00  0.00     0.065 A 
ATOM     16  C14 UNK     1      39.825  -0.278   7.995  1.00  0.00     0.037 A 
ATOM     17  C10 UNK     1      41.181  -0.312   8.318  1.00  0.00     0.012 A 
BRANCH  15  18
ATOM     18  O5  UNK     1      37.935   0.923   7.166  1.00  0.00    -0.361 OA
ATOM     19  H12 UNK     1      37.552   0.043   7.323  1.00  0.00     0.217 HD
ENDBRANCH  15  18
ENDBRANCH   3  12
BRANCH   8  20
ATOM     20  O3  UNK     1      48.016   1.274  10.507  1.00  0.00    -0.360 OA
ATOM     21  H10 UNK     1      48.793   1.846  10.620  1.00  0.00     0.217 HD
ENDBRANCH   8  20
BRANCH  11  22
ATOM     22  O4  UNK     1      48.500   2.597   5.973  1.00  0.00    -0.361 OA
ATOM     23  H11 UNK     1      47.964   3.056   5.303  1.00  0.00     0.217 HD
ENDBRANCH  11  22
TORSDOF 4
ENDMDL
MODEL 3
REMARK VINA RESULT:      -6.0      2.067      6.905
REMARK  4 active torsions:
REMARK  status: ('A' for Active; 'I' for Inactive)
REMARK    1  A    between atoms: O3_3  and  C7_12 
REMARK    2  A    between atoms: O4_4  and  C12_17 
REMARK    3  A    between atoms: O5_5  and  C15_20 
REMARK    4  A    between atoms: C1_6  and  C3_8 
ROOT
ATOM      1  O1  UNK     1      43.906   0.128   9.108  1.00  0.00    -0.340 OA
ATOM      2  O2  UNK     1      40.853   2.198   7.313  1.00  0.00    -0.292 OA
ATOM      3  C1  UNK     1      44.156   0.958   7.964  1.00  0.00     0.169 C 
ATOM      4  C2  UNK     1      43.175   2.128   7.910  1.00  0.00     0.121 C 
ATOM      5  C4  UNK     1      41.540   0.306   8.547  1.00  0.00     0.076 A 
ATOM      6  C5  UNK     1      41.769   1.589   7.850  1.00  0.00     0.167 C 
ATOM      7  C6  UNK     1      42.619  -0.341   9.156  1.00  0.00     0.089 A 
ATOM      8  C7  UNK     1      40.253  -0.232   8.633  1.00  0.00     0.085 A 
ATOM      9  C8  UNK     1      42.404  -1.513   9.882  1.00  0.00     0.074 A 
ATOM     10  C11 UNK     1      40.048  -1.416   9.343  1.00  0.00     0.074 A 
ATOM     11  C12 UNK     1      41.120  -2.052   9.972  1.00  0.00     0.071 A 
ENDROOT
BRANCH   3  12
ATOM     12  C3  UNK     1      45.588   1.449   8.032  1.00  0.00    -0.028 A 
ATOM     13  C9  UNK     1      46.416   1.034   9.074  1.00  0.00     0.012 A 
ATOM     14  C13 UNK     1      47.735   1.485   9.136  1.00  0.00     0.037 A 
ATOM     15  C15 UNK     1      48.223   2.351   8.158  1.00  0.00     0.065 A 
ATOM     16  C14 UNK     1      47.393   2.766   7.116  1.00  0.00     0.037 A 
ATOM     17  C10 UNK     1      46.075   2.313   7.053  1.00  0.00     0.012 A 
BRANCH  15  18
ATOM     18  O5  UNK     1      49.510   2.792   8.220  1.00  0.00    -0.361 OA
ATOM     19  H12 UNK     1      50.053   2.265   7.609  1.00  0.00     0.217 HD
ENDBRANCH  15  18
ENDBRANCH   3  12
BRANCH   8  20
ATOM     20  O3  UNK     1      39.169   0.354   8.055  1.00  0.00    -0.360 OA
ATOM     21  H10 UNK     1      38.376   0.164   8.582  1.00  0.00     0.217 HD
ENDBRANCH   8  20
BRANCH  11  22
ATOM     22  O4  UNK     1      40.913  -3.202  10.670  1.00  0.00    -0.361 OA
ATOM     23  H11 UNK     1      40.056  -3.144  11.127  1.00  0.00     0.217 HD
ENDBRANCH  11  22
TORSDOF 4
ENDMDL
MODEL 4
REMARK VINA RESULT:      -5.9      1.779      7.253
REMARK  4 active torsions:
REMARK  status: ('A' for Active; 'I' for Inactive)
REMARK    1  A    between atoms: O3_3  and  C7_12 
REMARK    2  A    between atoms: O4_4  and  C12_17 
REMARK    3  A    between atoms: O5_5  and  C15_20 
REMARK    4  A    between atoms: C1_6  and  C3_8 
ROOT
ATOM      1  O1  UNK     1      42.118  -0.189   8.642  1.00  0.00    -0.340 OA
ATOM      2  O2  UNK     1      39.348   2.386   7.055  1.00  0.00    -0.292 OA
ATOM      3  C1  UNK     1      42.510   0.818   7.697  1.00  0.00     0.169 C 
ATOM      4  C2  UNK     1      41.604   2.044   7.795  1.00  0.00     0.121 C 
ATOM      5  C4  UNK     1      39.821   0.256   7.955  1.00  0.00     0.076 A 
ATOM      6  C5  UNK     1      40.180   1.626   7.533  1.00  0.00     0.167 C 
ATOM      7  C6  UNK     1      40.808  -0.567   8.507  1.00  0.00     0.089 A 
ATOM      8  C7  UNK     1      38.505  -0.198   7.845  1.00  0.00     0.085 A 
ATOM      9  C8  UNK     1      40.468  -1.834   8.982  1.00  0.00     0.074 A 
ATOM     10  C11 UNK     1      38.175  -1.474   8.302  1.00  0.00     0.074 A 
ATOM     11  C12 UNK     1      39.153  -2.289   8.874  1.00  0.00     0.071 A 
ENDROOT
BRANCH   3  12
ATOM     12  C3  UNK     1      43.956   1.186   7.961  1.00  0.00    -0.028 A 
ATOM     13  C9  UNK     1      44.601   0.700   9.097  1.00  0.00     0.012 A 
ATOM     14  C13 UNK     1      45.933   1.038   9.339  1.00  0.00     0.037 A 
ATOM     15  C15 UNK     1      46.617   1.862   8.446  1.00  0.00     0.065 A 
ATOM     16  C14 UNK     1      45.970   2.348   7.310  1.00  0.00     0.037 A 
ATOM     17  C10 UNK     1      44.639   2.009   7.067  1.00  0.00     0.012 A 
BRANCH  15  18
ATOM     18  O5  UNK     1      47.916   2.193   8.683  1.00  0.00    -0.361 OA
ATOM     19  H12 UNK     1      48.141   2.981   8.161  1.00  0.00     0.217 HD
ENDBRANCH  15  18
ENDBRANCH   3  12
BRANCH   8  20
ATOM     20  O3  UNK     1      37.507   0.560   7.311  1.00  0.00    -0.360 OA
ATOM     21  H10 UNK     1      37.865   1.419   7.031  1.00  0.00     0.217 HD
ENDBRANCH   8  20
BRANCH  11  22
ATOM     22  O4  UNK     1      38.824  -3.531   9.326  1.00  0.00    -0.361 OA
ATOM     23  H11 UNK     1      38.356  -3.444  10.174  1.00  0.00     0.217 HD
ENDBRANCH  11  22
TORSDOF 4
ENDMDL
MODEL 5
REMARK VINA RESULT:      -5.9      3.312      6.732
REMARK  4 active torsions:
REMARK  status: ('A' for Active; 'I' for Inactive)
REMARK    1  A    between atoms: O3_3  and  C7_12 
REMARK    2  A    between atoms: O4_4  and  C12_17 
REMARK    3  A    between atoms: O5_5  and  C15_20 
REMARK    4  A    between atoms: C1_6  and  C3_8 
ROOT
ATOM      1  O1  UNK     1      42.054   1.141   9.459  1.00  0.00    -0.340 OA
ATOM      2  O2  UNK     1      39.042   1.278   6.677  1.00  0.00    -0.292 OA
ATOM      3  C1  UNK     1      42.018   2.179   8.467  1.00  0.00     0.169 C 
ATOM      4  C2  UNK     1      40.581   2.496   8.057  1.00  0.00     0.121 C 
ATOM      5  C4  UNK     1      40.403  -0.028   8.096  1.00  0.00     0.076 A 
ATOM      6  C5  UNK     1      39.938   1.247   7.511  1.00  0.00     0.167 C 
ATOM      7  C6  UNK     1      41.421  -0.006   9.054  1.00  0.00     0.089 A 
ATOM      8  C7  UNK     1      39.805  -1.236   7.729  1.00  0.00     0.085 A 
ATOM      9  C8  UNK     1      41.818  -1.192   9.672  1.00  0.00     0.074 A 
ATOM     10  C11 UNK     1      40.221  -2.422   8.335  1.00  0.00     0.074 A 
ATOM     11  C12 UNK     1      41.221  -2.400   9.309  1.00  0.00     0.071 A 
ENDROOT
BRANCH   3  12
ATOM     12  C3  UNK     1      42.707   3.404   9.030  1.00  0.00    -0.028 A 
ATOM     13  C9  UNK     1      42.021   4.251   9.900  1.00  0.00     0.012 A 
ATOM     14  C13 UNK     1      42.656   5.379  10.419  1.00  0.00     0.037 A 
ATOM     15  C15 UNK     1      43.976   5.660  10.069  1.00  0.00     0.065 A 
ATOM     16  C14 UNK     1      44.662   4.812   9.198  1.00  0.00     0.037 A 
ATOM     17  C10 UNK     1      44.027   3.683   8.680  1.00  0.00     0.012 A 
BRANCH  15  18
ATOM     18  O5  UNK     1      44.596   6.761  10.575  1.00  0.00    -0.361 OA
ATOM     19  H12 UNK     1      45.296   6.475  11.186  1.00  0.00     0.217 HD
ENDBRANCH  15  18
ENDBRANCH   3  12
BRANCH   8  20
ATOM     20  O3  UNK     1      38.814  -1.314   6.798  1.00  0.00    -0.360 OA
ATOM     21  H10 UNK     1      38.656  -2.245   6.569  1.00  0.00     0.217 HD
ENDBRANCH   8  20
BRANCH  11  22
ATOM     22  O4  UNK     1      41.617  -3.560   9.903  1.00  0.00    -0.361 OA
ATOM     23  H11 UNK     1      40.886  -4.201   9.860  1.00  0.00     0.217 HD
ENDBRANCH  11  22
TORSDOF 4
ENDMDL
MODEL 6
REMARK VINA RESULT:      -5.9      1.836      6.826
REMARK  4 active torsions:
REMARK  status: ('A' for Active; 'I' for Inactive)
REMARK    1  A    between atoms: O3_3  and  C7_12 
REMARK    2  A    between atoms: O4_4  and  C12_17 
REMARK    3  A    between atoms: O5_5  and  C15_20 
REMARK    4  A    between atoms: C1_6  and  C3_8 
ROOT
ATOM      1  O1  UNK     1      42.546   0.941   7.968  1.00  0.00    -0.340 OA
ATOM      2  O2  UNK     1      40.998  -1.730  10.669  1.00  0.00    -0.292 OA
ATOM      3  C1  UNK     1      43.226   0.668   9.203  1.00  0.00     0.169 C 
ATOM      4  C2  UNK     1      42.953  -0.758   9.676  1.00  0.00     0.121 C 
ATOM      5  C4  UNK     1      40.604  -0.154   8.956  1.00  0.00     0.076 A 
ATOM      6  C5  UNK     1      41.469  -0.939   9.862  1.00  0.00     0.167 C 
ATOM      7  C6  UNK     1      41.194   0.726   8.044  1.00  0.00     0.089 A 
ATOM      8  C7  UNK     1      39.217  -0.320   8.981  1.00  0.00     0.085 A 
ATOM      9  C8  UNK     1      40.397   1.416   7.131  1.00  0.00     0.074 A 
ATOM     10  C11 UNK     1      38.423   0.389   8.079  1.00  0.00     0.074 A 
ATOM     11  C12 UNK     1      39.011   1.251   7.152  1.00  0.00     0.071 A 
ENDROOT
BRANCH   3  12
ATOM     12  C3  UNK     1      44.708   0.900   8.994  1.00  0.00    -0.028 A 
ATOM     13  C9  UNK     1      45.152   1.610   7.879  1.00  0.00     0.012 A 
ATOM     14  C13 UNK     1      46.517   1.824   7.687  1.00  0.00     0.037 A 
ATOM     15  C15 UNK     1      47.437   1.327   8.610  1.00  0.00     0.065 A 
ATOM     16  C14 UNK     1      46.992   0.616   9.725  1.00  0.00     0.037 A 
ATOM     17  C10 UNK     1      45.627   0.404   9.917  1.00  0.00     0.012 A 
BRANCH  15  18
ATOM     18  O5  UNK     1      48.769   1.535   8.422  1.00  0.00    -0.361 OA
ATOM     19  H12 UNK     1      48.899   2.019   7.589  1.00  0.00     0.217 HD
ENDBRANCH  15  18
ENDBRANCH   3  12
BRANCH   8  20
ATOM     20  O3  UNK     1      38.591  -1.160   9.851  1.00  0.00    -0.360 OA
ATOM     21  H10 UNK     1      37.666  -1.279   9.579  1.00  0.00     0.217 HD
ENDBRANCH   8  20
BRANCH  11  22
ATOM     22  O4  UNK     1      38.232   1.934   6.269  1.00  0.00    -0.361 OA
ATOM     23  H11 UNK     1      38.803   2.350   5.600  1.00  0.00     0.217 HD
ENDBRANCH  11  22
TORSDOF 4
ENDMDL
MODEL 7
REMARK VINA RESULT:      -5.8      2.506      6.992
REMARK  4 active torsions:
REMARK  status: ('A' for Active; 'I' for Inactive)
REMARK    1  A    between atoms: O3_3  and  C7_12 
REMARK    2  A    between atoms: O4_4  and  C12_17 
REMARK    3  A    between atoms: O5_5  and  C15_20 
REMARK    4  A    between atoms: C1_6  and  C3_8 
ROOT
ATOM      1  O1  UNK     1      41.389  -0.098   8.039  1.00  0.00    -0.340 OA
ATOM      2  O2  UNK     1      41.607  -2.609  11.276  1.00  0.00    -0.292 OA
ATOM      3  C1  UNK     1      42.364   0.117   9.071  1.00  0.00     0.169 C 
ATOM      4  C2  UNK     1      42.774  -1.201   9.723  1.00  0.00     0.121 C 
ATOM      5  C4  UNK     1      40.281  -1.614   9.595  1.00  0.00     0.076 A 
ATOM      6  C5  UNK     1      41.552  -1.862  10.307  1.00  0.00     0.167 C 
ATOM      7  C6  UNK     1      40.277  -0.762   8.487  1.00  0.00     0.089 A 
ATOM      8  C7  UNK     1      39.107  -2.254   9.998  1.00  0.00     0.085 A 
ATOM      9  C8  UNK     1      39.101  -0.578   7.758  1.00  0.00     0.074 A 
ATOM     10  C11 UNK     1      37.929  -2.050   9.278  1.00  0.00     0.074 A 
ATOM     11  C12 UNK     1      37.927  -1.218   8.157  1.00  0.00     0.071 A 
ENDROOT
BRANCH   3  12
ATOM     12  C3  UNK     1      43.560   0.819   8.461  1.00  0.00    -0.028 A 
ATOM     13  C9  UNK     1      44.801   0.759   9.096  1.00  0.00     0.012 A 
ATOM     14  C13 UNK     1      45.902   1.405   8.533  1.00  0.00     0.037 A 
ATOM     15  C15 UNK     1      45.763   2.110   7.338  1.00  0.00     0.065 A 
ATOM     16  C14 UNK     1      44.520   2.170   6.705  1.00  0.00     0.037 A 
ATOM     17  C10 UNK     1      43.420   1.523   7.266  1.00  0.00     0.012 A 
BRANCH  15  18
ATOM     18  O5  UNK     1      46.837   2.741   6.790  1.00  0.00    -0.361 OA
ATOM     19  H12 UNK     1      46.975   3.586   7.251  1.00  0.00     0.217 HD
ENDBRANCH  15  18
ENDBRANCH   3  12
BRANCH   8  20
ATOM     20  O3  UNK     1      39.054  -3.089  11.072  1.00  0.00    -0.360 OA
ATOM     21  H10 UNK     1      39.946  -3.420  11.271  1.00  0.00     0.217 HD
ENDBRANCH   8  20
BRANCH  11  22
ATOM     22  O4  UNK     1      36.777  -1.029   7.453  1.00  0.00    -0.361 OA
ATOM     23  H11 UNK     1      36.548  -0.083   7.471  1.00  0.00     0.217 HD
ENDBRANCH  11  22
TORSDOF 4
ENDMDL
MODEL 8
REMARK VINA RESULT:      -5.7      1.784      1.824
REMARK  4 active torsions:
REMARK  status: ('A' for Active; 'I' for Inactive)
REMARK    1  A    between atoms: O3_3  and  C7_12 
REMARK    2  A    between atoms: O4_4  and  C12_17 
REMARK    3  A    between atoms: O5_5  and  C15_20 
REMARK    4  A    between atoms: C1_6  and  C3_8 
ROOT
ATOM      1  O1  UNK     1      43.713   2.004   7.409  1.00  0.00    -0.340 OA
ATOM      2  O2  UNK     1      44.284   4.683  10.463  1.00  0.00    -0.292 OA
ATOM      3  C1  UNK     1      42.876   1.977   8.575  1.00  0.00     0.169 C 
ATOM      4  C2  UNK     1      42.736   3.370   9.183  1.00  0.00     0.121 C 
ATOM      5  C4  UNK     1      45.217   3.431   8.692  1.00  0.00     0.076 A 
ATOM      6  C5  UNK     1      44.103   3.887   9.550  1.00  0.00     0.167 C 
ATOM      7  C6  UNK     1      44.954   2.532   7.655  1.00  0.00     0.089 A 
ATOM      8  C7  UNK     1      46.509   3.925   8.887  1.00  0.00     0.085 A 
ATOM      9  C8  UNK     1      45.980   2.152   6.789  1.00  0.00     0.074 A 
ATOM     10  C11 UNK     1      47.536   3.525   8.031  1.00  0.00     0.074 A 
ATOM     11  C12 UNK     1      47.271   2.645   6.980  1.00  0.00     0.071 A 
ENDROOT
BRANCH   3  12
ATOM     12  C3  UNK     1      41.525   1.415   8.182  1.00  0.00    -0.028 A 
ATOM     13  C9  UNK     1      41.207   0.091   8.486  1.00  0.00     0.012 A 
ATOM     14  C13 UNK     1      39.962  -0.426   8.124  1.00  0.00     0.037 A 
ATOM     15  C15 UNK     1      39.038   0.379   7.459  1.00  0.00     0.065 A 
ATOM     16  C14 UNK     1      39.358   1.703   7.155  1.00  0.00     0.037 A 
ATOM     17  C10 UNK     1      40.602   2.220   7.518  1.00  0.00     0.012 A 
BRANCH  15  18
ATOM     18  O5  UNK     1      37.825  -0.126   7.106  1.00  0.00    -0.361 OA
ATOM     19  H12 UNK     1      37.929  -1.064   6.875  1.00  0.00     0.217 HD
ENDBRANCH  15  18
ENDBRANCH   3  12
BRANCH   8  20
ATOM     20  O3  UNK     1      46.821   4.799   9.884  1.00  0.00    -0.360 OA
ATOM     21  H10 UNK     1      46.382   4.524  10.706  1.00  0.00     0.217 HD
ENDBRANCH   8  20
BRANCH  11  22
ATOM     22  O4  UNK     1      48.275   2.265   6.143  1.00  0.00    -0.361 OA
ATOM     23  H11 UNK     1      48.056   1.396   5.762  1.00  0.00     0.217 HD
ENDBRANCH  11  22
TORSDOF 4
ENDMDL
MODEL 9
REMARK VINA RESULT:      -5.7      2.335      7.274
REMARK  4 active torsions:
REMARK  status: ('A' for Active; 'I' for Inactive)
REMARK    1  A    between atoms: O3_3  and  C7_12 
REMARK    2  A    between atoms: O4_4  and  C12_17 
REMARK    3  A    between atoms: O5_5  and  C15_20 
REMARK    4  A    between atoms: C1_6  and  C3_8 
ROOT
ATOM      1  O1  UNK     1      46.190   1.905   9.722  1.00  0.00    -0.340 OA
ATOM      2  O2  UNK     1      43.945   0.959   6.422  1.00  0.00    -0.292 OA
ATOM      3  C1  UNK     1      46.821   1.558   8.480  1.00  0.00     0.169 C 
ATOM      4  C2  UNK     1      45.947   1.953   7.291  1.00  0.00     0.121 C 
ATOM      5  C4  UNK     1      44.137   0.991   8.774  1.00  0.00     0.076 A 
ATOM      6  C5  UNK     1      44.619   1.249   7.401  1.00  0.00     0.167 C 
ATOM      7  C6  UNK     1      44.942   1.354   9.858  1.00  0.00     0.089 A 
ATOM      8  C7  UNK     1      42.876   0.431   8.988  1.00  0.00     0.085 A 
ATOM      9  C8  UNK     1      44.468   1.188  11.160  1.00  0.00     0.074 A 
ATOM     10  C11 UNK     1      42.416   0.247  10.293  1.00  0.00     0.074 A 
ATOM     11  C12 UNK     1      43.207   0.630  11.377  1.00  0.00     0.071 A 
ENDROOT
BRANCH   3  12
ATOM     12  C3  UNK     1      48.169   2.246   8.419  1.00  0.00    -0.028 A 
ATOM     13  C9  UNK     1      49.089   2.068   9.452  1.00  0.00     0.012 A 
ATOM     14  C13 UNK     1      50.331   2.701   9.396  1.00  0.00     0.037 A 
ATOM     15  C15 UNK     1      50.651   3.513   8.308  1.00  0.00     0.065 A 
ATOM     16  C14 UNK     1      49.730   3.691   7.275  1.00  0.00     0.037 A 
ATOM     17  C10 UNK     1      48.489   3.056   7.331  1.00  0.00     0.012 A 
BRANCH  15  18
ATOM     18  O5  UNK     1      51.862   4.131   8.253  1.00  0.00    -0.361 OA
ATOM     19  H12 UNK     1      51.965   4.548   7.381  1.00  0.00     0.217 HD
ENDBRANCH  15  18
ENDBRANCH   3  12
BRANCH   8  20
ATOM     20  O3  UNK     1      42.054   0.055   7.969  1.00  0.00    -0.360 OA
ATOM     21  H10 UNK     1      42.382   0.426   7.133  1.00  0.00     0.217 HD
ENDBRANCH   8  20
BRANCH  11  22
ATOM     22  O4  UNK     1      42.751   0.456  12.647  1.00  0.00    -0.361 OA
ATOM     23  H11 UNK     1      43.149  -0.351  13.018  1.00  0.00     0.217 HD
ENDBRANCH  11  22
TORSDOF 4
ENDMDL
MODEL 10
REMARK VINA RESULT:      -5.7      5.413      8.077
REMARK  4 active torsions:
REMARK  status: ('A' for Active; 'I' for Inactive)
REMARK    1  A    between atoms: O3_3  and  C7_12 
REMARK    2  A    between atoms: O4_4  and  C12_17 
REMARK    3  A    between atoms: O5_5  and  C15_20 
REMARK    4  A    between atoms: C1_6  and  C3_8 
ROOT
ATOM      1  O1  UNK     1      38.988  -1.112   8.085  1.00  0.00    -0.340 OA
ATOM      2  O2  UNK     1      37.537  -3.381  11.178  1.00  0.00    -0.292 OA
ATOM      3  C1  UNK     1      38.354  -0.492   9.215  1.00  0.00     0.169 C 
ATOM      4  C2  UNK     1      38.555  -1.324  10.480  1.00  0.00     0.121 C 
ATOM      5  C4  UNK     1      38.036  -3.212   8.877  1.00  0.00     0.076 A 
ATOM      6  C5  UNK     1      37.977  -2.699  10.262  1.00  0.00     0.167 C 
ATOM      7  C6  UNK     1      38.560  -2.396   7.870  1.00  0.00     0.089 A 
ATOM      8  C7  UNK     1      37.615  -4.511   8.585  1.00  0.00     0.085 A 
ATOM      9  C8  UNK     1      38.694  -2.894   6.574  1.00  0.00     0.074 A 
ATOM     10  C11 UNK     1      37.732  -4.997   7.282  1.00  0.00     0.074 A 
ATOM     11  C12 UNK     1      38.275  -4.192   6.279  1.00  0.00     0.071 A 
ENDROOT
BRANCH   3  12
ATOM     12  C3  UNK     1      38.927   0.900   9.381  1.00  0.00    -0.028 A 
ATOM     13  C9  UNK     1      39.656   1.481   8.344  1.00  0.00     0.012 A 
ATOM     14  C13 UNK     1      40.183   2.764   8.497  1.00  0.00     0.037 A 
ATOM     15  C15 UNK     1      39.980   3.465   9.686  1.00  0.00     0.065 A 
ATOM     16  C14 UNK     1      39.250   2.882  10.723  1.00  0.00     0.037 A 
ATOM     17  C10 UNK     1      38.723   1.600  10.569  1.00  0.00     0.012 A 
BRANCH  15  18
ATOM     18  O5  UNK     1      40.495   4.716   9.835  1.00  0.00    -0.361 OA
ATOM     19  H12 UNK     1      41.282   4.667  10.403  1.00  0.00     0.217 HD
ENDBRANCH  15  18
ENDBRANCH   3  12
BRANCH   8  20
ATOM     20  O3  UNK     1      37.093  -5.346   9.527  1.00  0.00    -0.360 OA
ATOM     21  H10 UNK     1      37.150  -6.264   9.215  1.00  0.00     0.217 HD
ENDBRANCH   8  20
BRANCH  11  22
ATOM     22  O4  UNK     1      38.395  -4.673   5.011  1.00  0.00    -0.361 OA
ATOM     23  H11 UNK     1      38.925  -5.489   5.032  1.00  0.00     0.217 HD
ENDBRANCH  11  22
TORSDOF 4
ENDMDL
MODEL 11
REMARK VINA RESULT:      -5.6      7.311     10.490
REMARK  4 active torsions:
REMARK  status: ('A' for Active; 'I' for Inactive)
REMARK    1  A    between atoms: O3_3  and  C7_12 
REMARK    2  A    between atoms: O4_4  and  C12_17 
REMARK    3  A    between atoms: O5_5  and  C15_20 
REMARK    4  A    between atoms: C1_6  and  C3_8 
ROOT
ATOM      1  O1  UNK     1      37.718  -5.065   5.585  1.00  0.00    -0.340 OA
ATOM      2  O2  UNK     1      37.312  -6.350   9.460  1.00  0.00    -0.292 OA
ATOM      3  C1  UNK     1      37.986  -6.431   5.937  1.00  0.00     0.169 C 
ATOM      4  C2  UNK     1      37.131  -6.869   7.125  1.00  0.00     0.121 C 
ATOM      5  C4  UNK     1      37.794  -4.580   7.974  1.00  0.00     0.076 A 
ATOM      6  C5  UNK     1      37.426  -5.973   8.300  1.00  0.00     0.167 C 
ATOM      7  C6  UNK     1      37.898  -4.199   6.633  1.00  0.00     0.089 A 
ATOM      8  C7  UNK     1      37.995  -3.643   8.991  1.00  0.00     0.085 A 
ATOM      9  C8  UNK     1      38.169  -2.870   6.308  1.00  0.00     0.074 A 
ATOM     10  C11 UNK     1      38.287  -2.320   8.660  1.00  0.00     0.074 A 
ATOM     11  C12 UNK     1      38.368  -1.932   7.322  1.00  0.00     0.071 A 
ENDROOT
BRANCH   3  12
ATOM     12  C3  UNK     1      37.720  -7.299   4.724  1.00  0.00    -0.028 A 
ATOM     13  C9  UNK     1      36.614  -7.043   3.914  1.00  0.00     0.012 A 
ATOM     14  C13 UNK     1      36.370  -7.842   2.797  1.00  0.00     0.037 A 
ATOM     15  C15 UNK     1      37.231  -8.896   2.491  1.00  0.00     0.065 A 
ATOM     16  C14 UNK     1      38.337  -9.151   3.303  1.00  0.00     0.037 A 
ATOM     17  C10 UNK     1      38.581  -8.352   4.419  1.00  0.00     0.012 A 
BRANCH  15  18
ATOM     18  O5  UNK     1      36.992  -9.675   1.401  1.00  0.00    -0.361 OA
ATOM     19  H12 UNK     1      37.273 -10.585   1.597  1.00  0.00     0.217 HD
ENDBRANCH  15  18
ENDBRANCH   3  12
BRANCH   8  20
ATOM     20  O3  UNK     1      37.911  -3.962  10.312  1.00  0.00    -0.360 OA
ATOM     21  H10 UNK     1      37.226  -4.639  10.441  1.00  0.00     0.217 HD
ENDBRANCH   8  20
BRANCH  11  22
ATOM     22  O4  UNK     1      38.645  -0.637   7.005  1.00  0.00    -0.361 OA
ATOM     23  H11 UNK     1      38.843  -0.580   6.054  1.00  0.00     0.217 HD
ENDBRANCH  11  22
TORSDOF 4
ENDMDL
MODEL 12
REMARK VINA RESULT:      -5.6      5.978      9.590
REMARK  4 active torsions:
REMARK  status: ('A' for Active; 'I' for Inactive)
REMARK    1  A    between atoms: O3_3  and  C7_12 
REMARK    2  A    between atoms: O4_4  and  C12_17 
REMARK    3  A    between atoms: O5_5  and  C15_20 
REMARK    4  A    between atoms: C1_6  and  C3_8 
ROOT
ATOM      1  O1  UNK     1      38.614  -4.177   6.057  1.00  0.00    -0.340 OA
ATOM      2  O2  UNK     1      35.132  -2.312   7.162  1.00  0.00    -0.292 OA
ATOM      3  C1  UNK     1      37.399  -4.925   6.214  1.00  0.00     0.169 C 
ATOM      4  C2  UNK     1      36.179  -4.063   5.900  1.00  0.00     0.121 C 
ATOM      5  C4  UNK     1      37.491  -2.367   7.244  1.00  0.00     0.076 A 
ATOM      6  C5  UNK     1      36.167  -2.872   6.823  1.00  0.00     0.167 C 
ATOM      7  C6  UNK     1      38.641  -3.037   6.817  1.00  0.00     0.089 A 
ATOM      8  C7  UNK     1      37.594  -1.212   8.022  1.00  0.00     0.085 A 
ATOM      9  C8  UNK     1      39.900  -2.529   7.141  1.00  0.00     0.074 A 
ATOM     10  C11 UNK     1      38.855  -0.720   8.360  1.00  0.00     0.074 A 
ATOM     11  C12 UNK     1      40.006  -1.373   7.917  1.00  0.00     0.071 A 
ENDROOT
BRANCH   3  12
ATOM     12  C3  UNK     1      37.461  -6.136   5.305  1.00  0.00    -0.028 A 
ATOM     13  C9  UNK     1      38.175  -7.266   5.700  1.00  0.00     0.012 A 
ATOM     14  C13 UNK     1      38.232  -8.381   4.863  1.00  0.00     0.037 A 
ATOM     15  C15 UNK     1      37.575  -8.365   3.633  1.00  0.00     0.065 A 
ATOM     16  C14 UNK     1      36.860  -7.232   3.239  1.00  0.00     0.037 A 
ATOM     17  C10 UNK     1      36.803  -6.118   4.077  1.00  0.00     0.012 A 
BRANCH  15  18
ATOM     18  O5  UNK     1      37.630  -9.452   2.816  1.00  0.00    -0.361 OA
ATOM     19  H12 UNK     1      38.517  -9.505   2.422  1.00  0.00     0.217 HD
ENDBRANCH  15  18
ENDBRANCH   3  12
BRANCH   8  20
ATOM     20  O3  UNK     1      36.506  -0.524   8.467  1.00  0.00    -0.360 OA
ATOM     21  H10 UNK     1      35.957  -1.106   9.018  1.00  0.00     0.217 HD
ENDBRANCH   8  20
BRANCH  11  22
ATOM     22  O4  UNK     1      41.234  -0.885   8.244  1.00  0.00    -0.361 OA
ATOM     23  H11 UNK     1      41.678  -0.579   7.434  1.00  0.00     0.217 HD
ENDBRANCH  11  22
TORSDOF 4
ENDMDL
MODEL 13
REMARK VINA RESULT:      -5.6      3.294      6.547
REMARK  4 active torsions:
REMARK  status: ('A' for Active; 'I' for Inactive)
REMARK    1  A    between atoms: O3_3  and  C7_12 
REMARK    2  A    between atoms: O4_4  and  C12_17 
REMARK    3  A    between atoms: O5_5  and  C15_20 
REMARK    4  A    between atoms: C1_6  and  C3_8 
ROOT
ATOM      1  O1  UNK     1      41.356   2.942   8.489  1.00  0.00    -0.340 OA
ATOM      2  O2  UNK     1      43.477  -0.470   9.319  1.00  0.00    -0.292 OA
ATOM      3  C1  UNK     1      42.396   2.947   9.478  1.00  0.00     0.169 C 
ATOM      4  C2  UNK     1      43.478   1.922   9.143  1.00  0.00     0.121 C 
ATOM      5  C4  UNK     1      41.451   0.508   8.602  1.00  0.00     0.076 A 
ATOM      6  C5  UNK     1      42.853   0.553   9.069  1.00  0.00     0.167 C 
ATOM      7  C6  UNK     1      40.789   1.705   8.317  1.00  0.00     0.089 A 
ATOM      8  C7  UNK     1      40.809  -0.718   8.406  1.00  0.00     0.085 A 
ATOM      9  C8  UNK     1      39.493   1.676   7.802  1.00  0.00     0.074 A 
ATOM     10  C11 UNK     1      39.505  -0.740   7.911  1.00  0.00     0.074 A 
ATOM     11  C12 UNK     1      38.849   0.453   7.604  1.00  0.00     0.071 A 
ENDROOT
BRANCH   3  12
ATOM     12  C3  UNK     1      42.975   4.345   9.558  1.00  0.00    -0.028 A 
ATOM     13  C9  UNK     1      44.283   4.581   9.137  1.00  0.00     0.012 A 
ATOM     14  C13 UNK     1      44.815   5.869   9.210  1.00  0.00     0.037 A 
ATOM     15  C15 UNK     1      44.040   6.918   9.703  1.00  0.00     0.065 A 
ATOM     16  C14 UNK     1      42.731   6.680  10.124  1.00  0.00     0.037 A 
ATOM     17  C10 UNK     1      42.199   5.393  10.050  1.00  0.00     0.012 A 
BRANCH  15  18
ATOM     18  O5  UNK     1      44.560   8.174   9.774  1.00  0.00    -0.361 OA
ATOM     19  H12 UNK     1      43.973   8.727  10.317  1.00  0.00     0.217 HD
ENDBRANCH  15  18
ENDBRANCH   3  12
BRANCH   8  20
ATOM     20  O3  UNK     1      41.406  -1.912   8.672  1.00  0.00    -0.360 OA
ATOM     21  H10 UNK     1      41.733  -1.917   9.588  1.00  0.00     0.217 HD
ENDBRANCH   8  20
BRANCH  11  22
ATOM     22  O4  UNK     1      37.580   0.425   7.114  1.00  0.00    -0.361 OA
ATOM     23  H11 UNK     1      37.494   1.101   6.420  1.00  0.00     0.217 HD
ENDBRANCH  11  22
TORSDOF 4
ENDMDL
MODEL 14
REMARK VINA RESULT:      -5.6      3.754      8.165
REMARK  4 active torsions:
REMARK  status: ('A' for Active; 'I' for Inactive)
REMARK    1  A    between atoms: O3_3  and  C7_12 
REMARK    2  A    between atoms: O4_4  and  C12_17 
REMARK    3  A    between atoms: O5_5  and  C15_20 
REMARK    4  A    between atoms: C1_6  and  C3_8 
ROOT
ATOM      1  O1  UNK     1      39.537  -0.392   7.817  1.00  0.00    -0.340 OA
ATOM      2  O2  UNK     1      35.625  -0.039   8.999  1.00  0.00    -0.292 OA
ATOM      3  C1  UNK     1      38.960   0.898   8.067  1.00  0.00     0.169 C 
ATOM      4  C2  UNK     1      37.864   0.813   9.127  1.00  0.00     0.121 C 
ATOM      5  C4  UNK     1      37.257  -1.256   7.804  1.00  0.00     0.076 A 
ATOM      6  C5  UNK     1      36.796  -0.140   8.655  1.00  0.00     0.167 C 
ATOM      7  C6  UNK     1      38.607  -1.331   7.451  1.00  0.00     0.089 A 
ATOM      8  C7  UNK     1      36.363  -2.247   7.391  1.00  0.00     0.085 A 
ATOM      9  C8  UNK     1      39.072  -2.419   6.712  1.00  0.00     0.074 A 
ATOM     10  C11 UNK     1      36.830  -3.323   6.634  1.00  0.00     0.074 A 
ATOM     11  C12 UNK     1      38.182  -3.412   6.300  1.00  0.00     0.071 A 
ENDROOT
BRANCH   3  12
ATOM     12  C3  UNK     1      40.065   1.841   8.499  1.00  0.00    -0.028 A 
ATOM     13  C9  UNK     1      39.776   2.908   9.350  1.00  0.00     0.012 A 
ATOM     14  C13 UNK     1      40.794   3.776   9.747  1.00  0.00     0.037 A 
ATOM     15  C15 UNK     1      42.097   3.577   9.294  1.00  0.00     0.065 A 
ATOM     16  C14 UNK     1      42.384   2.509   8.442  1.00  0.00     0.037 A 
ATOM     17  C10 UNK     1      41.367   1.641   8.046  1.00  0.00     0.012 A 
BRANCH  15  18
ATOM     18  O5  UNK     1      43.090   4.424   9.682  1.00  0.00    -0.361 OA
ATOM     19  H12 UNK     1      42.753   5.003  10.386  1.00  0.00     0.217 HD
ENDBRANCH  15  18
ENDBRANCH   3  12
BRANCH   8  20
ATOM     20  O3  UNK     1      35.038  -2.220   7.703  1.00  0.00    -0.360 OA
ATOM     21  H10 UNK     1      34.743  -1.299   7.789  1.00  0.00     0.217 HD
ENDBRANCH   8  20
BRANCH  11  22
ATOM     22  O4  UNK     1      38.633  -4.468   5.568  1.00  0.00    -0.361 OA
ATOM     23  H11 UNK     1      38.200  -5.280   5.885  1.00  0.00     0.217 HD
ENDBRANCH  11  22
TORSDOF 4
ENDMDL
MODEL 15
REMARK VINA RESULT:      -5.6      3.777      8.154
REMARK  4 active torsions:
REMARK  status: ('A' for Active; 'I' for Inactive)
REMARK    1  A    between atoms: O3_3  and  C7_12 
REMARK    2  A    between atoms: O4_4  and  C12_17 
REMARK    3  A    between atoms: O5_5  and  C15_20 
REMARK    4  A    between atoms: C1_6  and  C3_8 
ROOT
ATOM      1  O1  UNK     1      39.519  -0.379   7.827  1.00  0.00    -0.340 OA
ATOM      2  O2  UNK     1      35.601  -0.029   8.991  1.00  0.00    -0.292 OA
ATOM      3  C1  UNK     1      38.940   0.911   8.076  1.00  0.00     0.169 C 
ATOM      4  C2  UNK     1      37.839   0.824   9.130  1.00  0.00     0.121 C 
ATOM      5  C4  UNK     1      37.239  -1.244   7.803  1.00  0.00     0.076 A 
ATOM      6  C5  UNK     1      36.774  -0.129   8.653  1.00  0.00     0.167 C 
ATOM      7  C6  UNK     1      38.591  -1.318   7.456  1.00  0.00     0.089 A 
ATOM      8  C7  UNK     1      36.349  -2.236   7.385  1.00  0.00     0.085 A 
ATOM      9  C8  UNK     1      39.060  -2.405   6.719  1.00  0.00     0.074 A 
ATOM     10  C11 UNK     1      36.819  -3.311   6.630  1.00  0.00     0.074 A 
ATOM     11  C12 UNK     1      38.173  -3.399   6.302  1.00  0.00     0.071 A 
ENDROOT
BRANCH   3  12
ATOM     12  C3  UNK     1      40.041   1.854   8.513  1.00  0.00    -0.028 A 
ATOM     13  C9  UNK     1      41.345   1.662   8.055  1.00  0.00     0.012 A 
ATOM     14  C13 UNK     1      42.359   2.531   8.458  1.00  0.00     0.037 A 
ATOM     15  C15 UNK     1      42.071   3.590   9.317  1.00  0.00     0.065 A 
ATOM     16  C14 UNK     1      40.766   3.782   9.774  1.00  0.00     0.037 A 
ATOM     17  C10 UNK     1      39.752   2.914   9.371  1.00  0.00     0.012 A 
BRANCH  15  18
ATOM     18  O5  UNK     1      43.060   4.438   9.710  1.00  0.00    -0.361 OA
ATOM     19  H12 UNK     1      42.793   4.872  10.538  1.00  0.00     0.217 HD
ENDBRANCH  15  18
ENDBRANCH   3  12
BRANCH   8  20
ATOM     20  O3  UNK     1      35.022  -2.210   7.690  1.00  0.00    -0.360 OA
ATOM     21  H10 UNK     1      34.561  -1.603   7.088  1.00  0.00     0.217 HD
ENDBRANCH   8  20
BRANCH  11  22
ATOM     22  O4  UNK     1      38.628  -4.454   5.572  1.00  0.00    -0.361 OA
ATOM     23  H11 UNK     1      39.419  -4.820   6.005  1.00  0.00     0.217 HD
ENDBRANCH  11  22
TORSDOF 4
ENDMDL
MODEL 16
REMARK VINA RESULT:      -5.6      2.325      4.735
REMARK  4 active torsions:
REMARK  status: ('A' for Active; 'I' for Inactive)
REMARK    1  A    between atoms: O3_3  and  C7_12 
REMARK    2  A    between atoms: O4_4  and  C12_17 
REMARK    3  A    between atoms: O5_5  and  C15_20 
REMARK    4  A    between atoms: C1_6  and  C3_8 
ROOT
ATOM      1  O1  UNK     1      47.702   1.494   9.463  1.00  0.00    -0.340 OA
ATOM      2  O2  UNK     1      49.513   3.744   6.551  1.00  0.00    -0.292 OA
ATOM      3  C1  UNK     1      46.922   2.311   8.576  1.00  0.00     0.169 C 
ATOM      4  C2  UNK     1      47.606   2.452   7.217  1.00  0.00     0.121 C 
ATOM      5  C4  UNK     1      49.644   2.746   8.686  1.00  0.00     0.076 A 
ATOM      6  C5  UNK     1      48.967   3.067   7.413  1.00  0.00     0.167 C 
ATOM      7  C6  UNK     1      48.981   1.958   9.630  1.00  0.00     0.089 A 
ATOM      8  C7  UNK     1      50.948   3.187   8.926  1.00  0.00     0.085 A 
ATOM      9  C8  UNK     1      49.635   1.581  10.804  1.00  0.00     0.074 A 
ATOM     10  C11 UNK     1      51.590   2.826  10.111  1.00  0.00     0.074 A 
ATOM     11  C12 UNK     1      50.938   2.020  11.046  1.00  0.00     0.071 A 
ENDROOT
BRANCH   3  12
ATOM     12  C3  UNK     1      45.549   1.688   8.434  1.00  0.00    -0.028 A 
ATOM     13  C9  UNK     1      44.721   2.063   7.376  1.00  0.00     0.012 A 
ATOM     14  C13 UNK     1      43.456   1.489   7.245  1.00  0.00     0.037 A 
ATOM     15  C15 UNK     1      43.020   0.542   8.171  1.00  0.00     0.065 A 
ATOM     16  C14 UNK     1      43.849   0.169   9.230  1.00  0.00     0.037 A 
ATOM     17  C10 UNK     1      45.114   0.742   9.360  1.00  0.00     0.012 A 
BRANCH  15  18
ATOM     18  O5  UNK     1      41.786  -0.017   8.044  1.00  0.00    -0.361 OA
ATOM     19  H12 UNK     1      41.866  -0.982   8.129  1.00  0.00     0.217 HD
ENDBRANCH  15  18
ENDBRANCH   3  12
BRANCH   8  20
ATOM     20  O3  UNK     1      51.638   3.961   8.043  1.00  0.00    -0.360 OA
ATOM     21  H10 UNK     1      52.100   4.669   8.522  1.00  0.00     0.217 HD
ENDBRANCH   8  20
BRANCH  11  22
ATOM     22  O4  UNK     1      51.573   1.663  12.196  1.00  0.00    -0.361 OA
ATOM     23  H11 UNK     1      51.979   2.454  12.591  1.00  0.00     0.217 HD
ENDBRANCH  11  22
TORSDOF 4
ENDMDL
MODEL 17
REMARK VINA RESULT:      -5.6      2.513      6.634
REMARK  4 active torsions:
REMARK  status: ('A' for Active; 'I' for Inactive)
REMARK    1  A    between atoms: O3_3  and  C7_12 
REMARK    2  A    between atoms: O4_4  and  C12_17 
REMARK    3  A    between atoms: O5_5  and  C15_20 
REMARK    4  A    between atoms: C1_6  and  C3_8 
ROOT
ATOM      1  O1  UNK     1      42.400   2.604   8.029  1.00  0.00    -0.340 OA
ATOM      2  O2  UNK     1      42.718  -1.175   9.594  1.00  0.00    -0.292 OA
ATOM      3  C1  UNK     1      43.205   2.357   9.192  1.00  0.00     0.169 C 
ATOM      4  C2  UNK     1      43.773   0.939   9.175  1.00  0.00     0.121 C 
ATOM      5  C4  UNK     1      41.421   0.403   8.410  1.00  0.00     0.076 A 
ATOM      6  C5  UNK     1      42.633  -0.047   9.126  1.00  0.00     0.167 C 
ATOM      7  C6  UNK     1      41.383   1.697   7.882  1.00  0.00     0.089 A 
ATOM      8  C7  UNK     1      40.344  -0.467   8.224  1.00  0.00     0.085 A 
ATOM      9  C8  UNK     1      40.277   2.110   7.137  1.00  0.00     0.074 A 
ATOM     10  C11 UNK     1      39.232  -0.042   7.496  1.00  0.00     0.074 A 
ATOM     11  C12 UNK     1      39.201   1.242   6.949  1.00  0.00     0.071 A 
ENDROOT
BRANCH   3  12
ATOM     12  C3  UNK     1      44.315   3.387   9.234  1.00  0.00    -0.028 A 
ATOM     13  C9  UNK     1      44.002   4.747   9.219  1.00  0.00     0.012 A 
ATOM     14  C13 UNK     1      45.024   5.696   9.259  1.00  0.00     0.037 A 
ATOM     15  C15 UNK     1      46.356   5.286   9.312  1.00  0.00     0.065 A 
ATOM     16  C14 UNK     1      46.667   3.926   9.327  1.00  0.00     0.037 A 
ATOM     17  C10 UNK     1      45.645   2.977   9.289  1.00  0.00     0.012 A 
BRANCH  15  18
ATOM     18  O5  UNK     1      47.352   6.212   9.350  1.00  0.00    -0.361 OA
ATOM     19  H12 UNK     1      47.085   6.984   8.823  1.00  0.00     0.217 HD
ENDBRANCH  15  18
ENDBRANCH   3  12
BRANCH   8  20
ATOM     20  O3  UNK     1      40.329  -1.735   8.720  1.00  0.00    -0.360 OA
ATOM     21  H10 UNK     1      39.650  -2.257   8.260  1.00  0.00     0.217 HD
ENDBRANCH   8  20
BRANCH  11  22
ATOM     22  O4  UNK     1      38.117   1.649   6.233  1.00  0.00    -0.361 OA
ATOM     23  H11 UNK     1      38.224   2.589   6.005  1.00  0.00     0.217 HD
ENDBRANCH  11  22
TORSDOF 4
ENDMDL
MODEL 18
REMARK VINA RESULT:      -5.6      2.461      3.201
REMARK  4 active torsions:
REMARK  status: ('A' for Active; 'I' for Inactive)
REMARK    1  A    between atoms: O3_3  and  C7_12 
REMARK    2  A    between atoms: O4_4  and  C12_17 
REMARK    3  A    between atoms: O5_5  and  C15_20 
REMARK    4  A    between atoms: C1_6  and  C3_8 
ROOT
ATOM      1  O1  UNK     1      42.494   3.063   8.918  1.00  0.00    -0.340 OA
ATOM      2  O2  UNK     1      45.917   1.644   7.160  1.00  0.00    -0.292 OA
ATOM      3  C1  UNK     1      42.432   2.295   7.707  1.00  0.00     0.169 C 
ATOM      4  C2  UNK     1      43.589   1.301   7.628  1.00  0.00     0.121 C 
ATOM      5  C4  UNK     1      44.881   3.302   8.482  1.00  0.00     0.076 A 
ATOM      6  C5  UNK     1      44.892   2.057   7.686  1.00  0.00     0.167 C 
ATOM      7  C6  UNK     1      43.685   3.723   9.072  1.00  0.00     0.089 A 
ATOM      8  C7  UNK     1      46.058   4.028   8.678  1.00  0.00     0.085 A 
ATOM      9  C8  UNK     1      43.675   4.853   9.889  1.00  0.00     0.074 A 
ATOM     10  C11 UNK     1      46.038   5.170   9.480  1.00  0.00     0.074 A 
ATOM     11  C12 UNK     1      44.850   5.579  10.089  1.00  0.00     0.071 A 
ENDROOT
BRANCH   3  12
ATOM     12  C3  UNK     1      41.097   1.581   7.659  1.00  0.00    -0.028 A 
ATOM     13  C9  UNK     1      40.974   0.297   8.188  1.00  0.00     0.012 A 
ATOM     14  C13 UNK     1      39.744  -0.360   8.145  1.00  0.00     0.037 A 
ATOM     15  C15 UNK     1      38.638   0.268   7.572  1.00  0.00     0.065 A 
ATOM     16  C14 UNK     1      38.762   1.553   7.043  1.00  0.00     0.037 A 
ATOM     17  C10 UNK     1      39.991   2.210   7.087  1.00  0.00     0.012 A 
BRANCH  15  18
ATOM     18  O5  UNK     1      37.438  -0.373   7.529  1.00  0.00    -0.361 OA
ATOM     19  H12 UNK     1      37.391  -1.004   8.268  1.00  0.00     0.217 HD
ENDBRANCH  15  18
ENDBRANCH   3  12
BRANCH   8  20
ATOM     20  O3  UNK     1      47.248   3.665   8.123  1.00  0.00    -0.360 OA
ATOM     21  H10 UNK     1      47.917   4.343   8.316  1.00  0.00     0.217 HD
ENDBRANCH   8  20
BRANCH  11  22
ATOM     22  O4  UNK     1      44.838   6.690  10.876  1.00  0.00    -0.361 OA
ATOM     23  H11 UNK     1      44.224   7.341  10.494  1.00  0.00     0.217 HD
ENDBRANCH  11  22
TORSDOF 4
ENDMDL
MODEL 19
REMARK VINA RESULT:      -5.4      3.500      5.260
REMARK  4 active torsions:
REMARK  status: ('A' for Active; 'I' for Inactive)
REMARK    1  A    between atoms: O3_3  and  C7_12 
REMARK    2  A    between atoms: O4_4  and  C12_17 
REMARK    3  A    between atoms: O5_5  and  C15_20 
REMARK    4  A    between atoms: C1_6  and  C3_8 
ROOT
ATOM      1  O1  UNK     1      39.413   0.290   8.545  1.00  0.00    -0.340 OA
ATOM      2  O2  UNK     1      43.124  -1.018   9.703  1.00  0.00    -0.292 OA
ATOM      3  C1  UNK     1      40.007  -0.867   7.935  1.00  0.00     0.169 C 
ATOM      4  C2  UNK     1      40.933  -1.588   8.912  1.00  0.00     0.121 C 
ATOM      5  C4  UNK     1      41.629   0.788   9.432  1.00  0.00     0.076 A 
ATOM      6  C5  UNK     1      42.012  -0.637   9.360  1.00  0.00     0.167 C 
ATOM      7  C6  UNK     1      40.342   1.168   9.041  1.00  0.00     0.089 A 
ATOM      8  C7  UNK     1      42.525   1.739   9.926  1.00  0.00     0.085 A 
ATOM      9  C8  UNK     1      39.939   2.497   9.176  1.00  0.00     0.074 A 
ATOM     10  C11 UNK     1      42.124   3.071  10.039  1.00  0.00     0.074 A 
ATOM     11  C12 UNK     1      40.832   3.448   9.670  1.00  0.00     0.071 A 
ENDROOT
BRANCH   3  12
ATOM     12  C3  UNK     1      38.896  -1.781   7.459  1.00  0.00    -0.028 A 
ATOM     13  C9  UNK     1      39.202  -2.908   6.697  1.00  0.00     0.012 A 
ATOM     14  C13 UNK     1      38.179  -3.750   6.259  1.00  0.00     0.037 A 
ATOM     15  C15 UNK     1      36.853  -3.464   6.583  1.00  0.00     0.065 A 
ATOM     16  C14 UNK     1      36.549  -2.336   7.345  1.00  0.00     0.037 A 
ATOM     17  C10 UNK     1      37.572  -1.495   7.784  1.00  0.00     0.012 A 
BRANCH  15  18
ATOM     18  O5  UNK     1      35.856  -4.286   6.155  1.00  0.00    -0.361 OA
ATOM     19  H12 UNK     1      36.203  -4.866   5.457  1.00  0.00     0.217 HD
ENDBRANCH  15  18
ENDBRANCH   3  12
BRANCH   8  20
ATOM     20  O3  UNK     1      43.792   1.424  10.316  1.00  0.00    -0.360 OA
ATOM     21  H10 UNK     1      44.421   2.043   9.910  1.00  0.00     0.217 HD
ENDBRANCH   8  20
BRANCH  11  22
ATOM     22  O4  UNK     1      40.443   4.748   9.790  1.00  0.00    -0.361 OA
ATOM     23  H11 UNK     1      40.792   5.253   9.035  1.00  0.00     0.217 HD
ENDBRANCH  11  22
TORSDOF 4
ENDMDL
