MODEL 1
REMARK VINA RESULT:      -6.0      0.000      0.000
REMARK  4 active torsions:
REMARK  status: ('A' for Active; 'I' for Inactive)
REMARK    1  A    between atoms: O3_3  and  C7_12 
REMARK    2  A    between atoms: O4_4  and  C12_17 
REMARK    3  A    between atoms: O5_5  and  C15_20 
REMARK    4  A    between atoms: C1_6  and  C3_8 
ROOT
ATOM      1  O1  UNK     1      44.078   1.676   7.611  1.00  0.00    -0.340 OA
ATOM      2  O2  UNK     1      45.512   0.889  11.372  1.00  0.00    -0.292 OA
ATOM      3  C1  UNK     1      43.379   0.782   8.490  1.00  0.00     0.169 C 
ATOM      4  C2  UNK     1      43.599   1.167   9.951  1.00  0.00     0.121 C 
ATOM      5  C4  UNK     1      45.973   1.468   9.131  1.00  0.00     0.076 A 
ATOM      6  C5  UNK     1      45.075   1.128  10.254  1.00  0.00     0.167 C 
ATOM      7  C6  UNK     1      45.421   1.744   7.877  1.00  0.00     0.089 A 
ATOM      8  C7  UNK     1      47.353   1.553   9.329  1.00  0.00     0.085 A 
ATOM      9  C8  UNK     1      46.249   2.142   6.827  1.00  0.00     0.074 A 
ATOM     10  C11 UNK     1      48.179   1.931   8.269  1.00  0.00     0.074 A 
ATOM     11  C12 UNK     1      47.628   2.230   7.022  1.00  0.00     0.071 A 
ENDROOT
BRANCH   3  12
ATOM     12  C3  UNK     1      41.907   0.814   8.133  1.00  0.00    -0.028 A 
ATOM     13  C9  UNK     1      41.338   1.982   7.628  1.00  0.00     0.012 A 
ATOM     14  C13 UNK     1      39.982   2.011   7.299  1.00  0.00     0.037 A 
ATOM     15  C15 UNK     1      39.197   0.872   7.476  1.00  0.00     0.065 A 
ATOM     16  C14 UNK     1      39.768  -0.297   7.982  1.00  0.00     0.037 A 
ATOM     17  C10 UNK     1      41.123  -0.325   8.309  1.00  0.00     0.012 A 
BRANCH  15  18
ATOM     18  O5  UNK     1      37.875   0.901   7.156  1.00  0.00    -0.361 OA
ATOM     19  H12 UNK     1      37.605   0.017   6.852  1.00  0.00     0.217 HD
ENDBRANCH  15  18
ENDBRANCH   3  12
BRANCH   8  20
ATOM     20  O3  UNK     1      47.943   1.290  10.528  1.00  0.00    -0.360 OA
ATOM     21  H10 UNK     1      47.947   2.094  11.072  1.00  0.00     0.217 HD
ENDBRANCH   8  20
BRANCH  11  22
ATOM     22  O4  UNK     1      48.438   2.606   5.994  1.00  0.00    -0.361 OA
ATOM     23  H11 UNK     1      49.248   3.002   6.359  1.00  0.00     0.217 HD
ENDBRANCH  11  22
TORSDOF 4
ENDMDL
MODEL 2
REMARK VINA RESULT:      -6.0      0.035      1.081
REMARK  4 active torsions:
REMARK  status: ('A' for Active; 'I' for Inactive)
REMARK    1  A    between atoms: O3_3  and  C7_12 
REMARK    2  A    between atoms: O4_4  and  C12_17 
REMARK    3  A    between atoms: O5_5  and  C15_20 
REMARK    4  A    between atoms: C1_6  and  C3_8 
ROOT
ATOM      1  O1  UNK     1      44.108   1.673   7.609  1.00  0.00    -0.340 OA
ATOM      2  O2  UNK     1      45.553   0.861  11.361  1.00  0.00    -0.292 OA
ATOM      3  C1  UNK     1      43.410   0.775   8.486  1.00  0.00     0.169 C 
ATOM      4  C2  UNK     1      43.636   1.151   9.948  1.00  0.00     0.121 C 
ATOM      5  C4  UNK     1      46.007   1.452   9.121  1.00  0.00     0.076 A 
ATOM      6  C5  UNK     1      45.112   1.107  10.245  1.00  0.00     0.167 C 
ATOM      7  C6  UNK     1      45.452   1.737   7.871  1.00  0.00     0.089 A 
ATOM      8  C7  UNK     1      47.389   1.534   9.315  1.00  0.00     0.085 A 
ATOM      9  C8  UNK     1      46.277   2.139   6.820  1.00  0.00     0.074 A 
ATOM     10  C11 UNK     1      48.211   1.916   8.255  1.00  0.00     0.074 A 
ATOM     11  C12 UNK     1      47.657   2.224   7.012  1.00  0.00     0.071 A 
ENDROOT
BRANCH   3  12
ATOM     12  C3  UNK     1      41.936   0.812   8.134  1.00  0.00    -0.028 A 
ATOM     13  C9  UNK     1      41.150  -0.325   8.315  1.00  0.00     0.012 A 
ATOM     14  C13 UNK     1      39.793  -0.291   7.992  1.00  0.00     0.037 A 
ATOM     15  C15 UNK     1      39.224   0.878   7.488  1.00  0.00     0.065 A 
ATOM     16  C14 UNK     1      40.013   2.015   7.307  1.00  0.00     0.037 A 
ATOM     17  C10 UNK     1      41.369   1.981   7.631  1.00  0.00     0.012 A 
BRANCH  15  18
ATOM     18  O5  UNK     1      37.901   0.910   7.172  1.00  0.00    -0.361 OA
ATOM     19  H12 UNK     1      37.473   1.622   7.678  1.00  0.00     0.217 HD
ENDBRANCH  15  18
ENDBRANCH   3  12
BRANCH   8  20
ATOM     20  O3  UNK     1      47.982   1.262  10.511  1.00  0.00    -0.360 OA
ATOM     21  H10 UNK     1      48.015   0.301  10.646  1.00  0.00     0.217 HD
ENDBRANCH   8  20
BRANCH  11  22
ATOM     22  O4  UNK     1      48.464   2.604   5.983  1.00  0.00    -0.361 OA
ATOM     23  H11 UNK     1      47.921   2.724   5.184  1.00  0.00     0.217 HD
ENDBRANCH  11  22
TORSDOF 4
ENDMDL
MODEL 3
REMARK VINA RESULT:      -6.0      2.069      6.965
REMARK  4 active torsions:
REMARK  status: ('A' for Active; 'I' for Inactive)
REMARK    1  A    between atoms: O3_3  and  C7_12 
REMARK    2  A    between atoms: O4_4  and  C12_17 
REMARK    3  A    between atoms: O5_5  and  C15_20 
REMARK    4  A    between atoms: C1_6  and  C3_8 
ROOT
ATOM      1  O1  UNK     1      43.930   0.131   9.126  1.00  0.00    -0.340 OA
ATOM      2  O2  UNK     1      40.874   2.189   7.322  1.00  0.00    -0.292 OA
ATOM      3  C1  UNK     1      44.179   0.956   7.977  1.00  0.00     0.169 C 
ATOM      4  C2  UNK     1      43.197   2.124   7.918  1.00  0.00     0.121 C 
ATOM      5  C4  UNK     1      41.563   0.304   8.565  1.00  0.00     0.076 A 
ATOM      6  C5  UNK     1      41.791   1.584   7.862  1.00  0.00     0.167 C 
ATOM      7  C6  UNK     1      42.643  -0.339   9.177  1.00  0.00     0.089 A 
ATOM      8  C7  UNK     1      40.278  -0.235   8.655  1.00  0.00     0.085 A 
ATOM      9  C8  UNK     1      42.431  -1.507   9.910  1.00  0.00     0.074 A 
ATOM     10  C11 UNK     1      40.074  -1.415   9.372  1.00  0.00     0.074 A 
ATOM     11  C12 UNK     1      41.147  -2.047  10.003  1.00  0.00     0.071 A 
ENDROOT
BRANCH   3  12
ATOM     12  C3  UNK     1      45.610   1.448   8.042  1.00  0.00    -0.028 A 
ATOM     13  C9  UNK     1      46.442   1.034   9.082  1.00  0.00     0.012 A 
ATOM     14  C13 UNK     1      47.760   1.488   9.141  1.00  0.00     0.037 A 
ATOM     15  C15 UNK     1      48.245   2.354   8.162  1.00  0.00     0.065 A 
ATOM     16  C14 UNK     1      47.411   2.768   7.122  1.00  0.00     0.037 A 
ATOM     17  C10 UNK     1      46.094   2.314   7.062  1.00  0.00     0.012 A 
BRANCH  15  18
ATOM     18  O5  UNK     1      49.530   2.796   8.220  1.00  0.00    -0.361 OA
ATOM     19  H12 UNK     1      50.127   2.062   7.996  1.00  0.00     0.217 HD
ENDBRANCH  15  18
ENDBRANCH   3  12
BRANCH   8  20
ATOM     20  O3  UNK     1      39.192   0.347   8.075  1.00  0.00    -0.360 OA
ATOM     21  H10 UNK     1      39.476   1.117   7.554  1.00  0.00     0.217 HD
ENDBRANCH   8  20
BRANCH  11  22
ATOM     22  O4  UNK     1      40.942  -3.193  10.708  1.00  0.00    -0.361 OA
ATOM     23  H11 UNK     1      40.124  -3.616  10.392  1.00  0.00     0.217 HD
ENDBRANCH  11  22
TORSDOF 4
ENDMDL
MODEL 4
REMARK VINA RESULT:      -5.9      1.780      7.313
REMARK  4 active torsions:
REMARK  status: ('A' for Active; 'I' for Inactive)
REMARK    1  A    between atoms: O3_3  and  C7_12 
REMARK    2  A    between atoms: O4_4  and  C12_17 
REMARK    3  A    between atoms: O5_5  and  C15_20 
REMARK    4  A    between atoms: C1_6  and  C3_8 
ROOT
ATOM      1  O1  UNK     1      42.117  -0.189   8.643  1.00  0.00    -0.340 OA
ATOM      2  O2  UNK     1      39.348   2.386   7.055  1.00  0.00    -0.292 OA
ATOM      3  C1  UNK     1      42.509   0.818   7.698  1.00  0.00     0.169 C 
ATOM      4  C2  UNK     1      41.603   2.044   7.796  1.00  0.00     0.121 C 
ATOM      5  C4  UNK     1      39.821   0.256   7.955  1.00  0.00     0.076 A 
ATOM      6  C5  UNK     1      40.180   1.626   7.533  1.00  0.00     0.167 C 
ATOM      7  C6  UNK     1      40.807  -0.567   8.507  1.00  0.00     0.089 A 
ATOM      8  C7  UNK     1      38.504  -0.197   7.844  1.00  0.00     0.085 A 
ATOM      9  C8  UNK     1      40.467  -1.835   8.981  1.00  0.00     0.074 A 
ATOM     10  C11 UNK     1      38.174  -1.474   8.301  1.00  0.00     0.074 A 
ATOM     11  C12 UNK     1      39.152  -2.289   8.873  1.00  0.00     0.071 A 
ENDROOT
BRANCH   3  12
ATOM     12  C3  UNK     1      43.955   1.186   7.962  1.00  0.00    -0.028 A 
ATOM     13  C9  UNK     1      44.601   0.698   9.097  1.00  0.00     0.012 A 
ATOM     14  C13 UNK     1      45.933   1.036   9.340  1.00  0.00     0.037 A 
ATOM     15  C15 UNK     1      46.617   1.861   8.448  1.00  0.00     0.065 A 
ATOM     16  C14 UNK     1      45.969   2.349   7.312  1.00  0.00     0.037 A 
ATOM     17  C10 UNK     1      44.638   2.010   7.069  1.00  0.00     0.012 A 
BRANCH  15  18
ATOM     18  O5  UNK     1      47.916   2.191   8.685  1.00  0.00    -0.361 OA
ATOM     19  H12 UNK     1      48.107   2.059   9.629  1.00  0.00     0.217 HD
ENDBRANCH  15  18
ENDBRANCH   3  12
BRANCH   8  20
ATOM     20  O3  UNK     1      37.507   0.561   7.310  1.00  0.00    -0.360 OA
ATOM     21  H10 UNK     1      36.661   0.089   7.388  1.00  0.00     0.217 HD
ENDBRANCH   8  20
BRANCH  11  22
ATOM     22  O4  UNK     1      38.823  -3.531   9.324  1.00  0.00    -0.361 OA
ATOM     23  H11 UNK     1      38.663  -4.112   8.560  1.00  0.00     0.217 HD
ENDBRANCH  11  22
TORSDOF 4
ENDMDL
MODEL 5
REMARK VINA RESULT:      -5.9      3.311      6.730
REMARK  4 active torsions:
REMARK  status: ('A' for Active; 'I' for Inactive)
REMARK    1  A    between atoms: O3_3  and  C7_12 
REMARK    2  A    between atoms: O4_4  and  C12_17 
REMARK    3  A    between atoms: O5_5  and  C15_20 
REMARK    4  A    between atoms: C1_6  and  C3_8 
ROOT
ATOM      1  O1  UNK     1      42.054   1.141   9.459  1.00  0.00    -0.340 OA
ATOM      2  O2  UNK     1      39.042   1.278   6.677  1.00  0.00    -0.292 OA
ATOM      3  C1  UNK     1      42.018   2.179   8.467  1.00  0.00     0.169 C 
ATOM      4  C2  UNK     1      40.582   2.496   8.057  1.00  0.00     0.121 C 
ATOM      5  C4  UNK     1      40.404  -0.027   8.097  1.00  0.00     0.076 A 
ATOM      6  C5  UNK     1      39.939   1.247   7.511  1.00  0.00     0.167 C 
ATOM      7  C6  UNK     1      41.421  -0.006   9.055  1.00  0.00     0.089 A 
ATOM      8  C7  UNK     1      39.806  -1.236   7.730  1.00  0.00     0.085 A 
ATOM      9  C8  UNK     1      41.818  -1.192   9.673  1.00  0.00     0.074 A 
ATOM     10  C11 UNK     1      40.221  -2.422   8.336  1.00  0.00     0.074 A 
ATOM     11  C12 UNK     1      41.221  -2.400   9.309  1.00  0.00     0.071 A 
ENDROOT
BRANCH   3  12
ATOM     12  C3  UNK     1      42.708   3.404   9.031  1.00  0.00    -0.028 A 
ATOM     13  C9  UNK     1      42.021   4.251   9.900  1.00  0.00     0.012 A 
ATOM     14  C13 UNK     1      42.657   5.380  10.419  1.00  0.00     0.037 A 
ATOM     15  C15 UNK     1      43.977   5.660  10.069  1.00  0.00     0.065 A 
ATOM     16  C14 UNK     1      44.663   4.812   9.199  1.00  0.00     0.037 A 
ATOM     17  C10 UNK     1      44.028   3.683   8.680  1.00  0.00     0.012 A 
BRANCH  15  18
ATOM     18  O5  UNK     1      44.597   6.761  10.575  1.00  0.00    -0.361 OA
ATOM     19  H12 UNK     1      43.937   7.314  11.027  1.00  0.00     0.217 HD
ENDBRANCH  15  18
ENDBRANCH   3  12
BRANCH   8  20
ATOM     20  O3  UNK     1      38.815  -1.314   6.799  1.00  0.00    -0.360 OA
ATOM     21  H10 UNK     1      39.188  -1.169   5.913  1.00  0.00     0.217 HD
ENDBRANCH   8  20
BRANCH  11  22
ATOM     22  O4  UNK     1      41.617  -3.559   9.903  1.00  0.00    -0.361 OA
ATOM     23  H11 UNK     1      42.236  -3.349  10.624  1.00  0.00     0.217 HD
ENDBRANCH  11  22
TORSDOF 4
ENDMDL
MODEL 6
REMARK VINA RESULT:      -5.9      1.827      6.761
REMARK  4 active torsions:
REMARK  status: ('A' for Active; 'I' for Inactive)
REMARK    1  A    between atoms: O3_3  and  C7_12 
REMARK    2  A    between atoms: O4_4  and  C12_17 
REMARK    3  A    between atoms: O5_5  and  C15_20 
REMARK    4  A    between atoms: C1_6  and  C3_8 
ROOT
ATOM      1  O1  UNK     1      42.574   0.954   7.973  1.00  0.00    -0.340 OA
ATOM      2  O2  UNK     1      41.018  -1.750  10.637  1.00  0.00    -0.292 OA
ATOM      3  C1  UNK     1      43.250   0.667   9.206  1.00  0.00     0.169 C 
ATOM      4  C2  UNK     1      42.976  -0.764   9.662  1.00  0.00     0.121 C 
ATOM      5  C4  UNK     1      40.629  -0.153   8.942  1.00  0.00     0.076 A 
ATOM      6  C5  UNK     1      41.491  -0.948   9.841  1.00  0.00     0.167 C 
ATOM      7  C6  UNK     1      41.222   0.738   8.043  1.00  0.00     0.089 A 
ATOM      8  C7  UNK     1      39.242  -0.319   8.961  1.00  0.00     0.085 A 
ATOM      9  C8  UNK     1      40.427   1.440   7.136  1.00  0.00     0.074 A 
ATOM     10  C11 UNK     1      38.450   0.401   8.065  1.00  0.00     0.074 A 
ATOM     11  C12 UNK     1      39.041   1.274   7.150  1.00  0.00     0.071 A 
ENDROOT
BRANCH   3  12
ATOM     12  C3  UNK     1      44.733   0.902   9.005  1.00  0.00    -0.028 A 
ATOM     13  C9  UNK     1      45.182   1.593   7.880  1.00  0.00     0.012 A 
ATOM     14  C13 UNK     1      46.548   1.809   7.695  1.00  0.00     0.037 A 
ATOM     15  C15 UNK     1      47.463   1.334   8.633  1.00  0.00     0.065 A 
ATOM     16  C14 UNK     1      47.013   0.642   9.759  1.00  0.00     0.037 A 
ATOM     17  C10 UNK     1      45.647   0.427   9.944  1.00  0.00     0.012 A 
BRANCH  15  18
ATOM     18  O5  UNK     1      48.796   1.545   8.453  1.00  0.00    -0.361 OA
ATOM     19  H12 UNK     1      49.182   1.858   9.288  1.00  0.00     0.217 HD
ENDBRANCH  15  18
ENDBRANCH   3  12
BRANCH   8  20
ATOM     20  O3  UNK     1      38.614  -1.169   9.819  1.00  0.00    -0.360 OA
ATOM     21  H10 UNK     1      39.142  -1.979   9.920  1.00  0.00     0.217 HD
ENDBRANCH   8  20
BRANCH  11  22
ATOM     22  O4  UNK     1      38.264   1.968   6.274  1.00  0.00    -0.361 OA
ATOM     23  H11 UNK     1      37.520   2.366   6.758  1.00  0.00     0.217 HD
ENDBRANCH  11  22
TORSDOF 4
ENDMDL
MODEL 7
REMARK VINA RESULT:      -5.8      2.502      7.028
REMARK  4 active torsions:
REMARK  status: ('A' for Active; 'I' for Inactive)
REMARK    1  A    between atoms: O3_3  and  C7_12 
REMARK    2  A    between atoms: O4_4  and  C12_17 
REMARK    3  A    between atoms: O5_5  and  C15_20 
REMARK    4  A    between atoms: C1_6  and  C3_8 
ROOT
ATOM      1  O1  UNK     1      41.387  -0.089   8.043  1.00  0.00    -0.340 OA
ATOM      2  O2  UNK     1      41.607  -2.603  11.276  1.00  0.00    -0.292 OA
ATOM      3  C1  UNK     1      42.366   0.123   9.072  1.00  0.00     0.169 C 
ATOM      4  C2  UNK     1      42.774  -1.198   9.721  1.00  0.00     0.121 C 
ATOM      5  C4  UNK     1      40.279  -1.602   9.601  1.00  0.00     0.076 A 
ATOM      6  C5  UNK     1      41.551  -1.855  10.309  1.00  0.00     0.167 C 
ATOM      7  C6  UNK     1      40.274  -0.749   8.494  1.00  0.00     0.089 A 
ATOM      8  C7  UNK     1      39.104  -2.239  10.007  1.00  0.00     0.085 A 
ATOM      9  C8  UNK     1      39.097  -0.560   7.769  1.00  0.00     0.074 A 
ATOM     10  C11 UNK     1      37.925  -2.030   9.291  1.00  0.00     0.074 A 
ATOM     11  C12 UNK     1      37.921  -1.197   8.171  1.00  0.00     0.071 A 
ENDROOT
BRANCH   3  12
ATOM     12  C3  UNK     1      43.563   0.821   8.458  1.00  0.00    -0.028 A 
ATOM     13  C9  UNK     1      44.804   0.759   9.090  1.00  0.00     0.012 A 
ATOM     14  C13 UNK     1      45.906   1.402   8.525  1.00  0.00     0.037 A 
ATOM     15  C15 UNK     1      45.766   2.106   7.330  1.00  0.00     0.065 A 
ATOM     16  C14 UNK     1      44.522   2.168   6.698  1.00  0.00     0.037 A 
ATOM     17  C10 UNK     1      43.421   1.524   7.263  1.00  0.00     0.012 A 
BRANCH  15  18
ATOM     18  O5  UNK     1      46.840   2.733   6.778  1.00  0.00    -0.361 OA
ATOM     19  H12 UNK     1      47.074   3.500   7.329  1.00  0.00     0.217 HD
ENDBRANCH  15  18
ENDBRANCH   3  12
BRANCH   8  20
ATOM     20  O3  UNK     1      39.053  -3.075  11.081  1.00  0.00    -0.360 OA
ATOM     21  H10 UNK     1      38.603  -2.630  11.818  1.00  0.00     0.217 HD
ENDBRANCH   8  20
BRANCH  11  22
ATOM     22  O4  UNK     1      36.770  -1.003   7.471  1.00  0.00    -0.361 OA
ATOM     23  H11 UNK     1      36.069  -1.556   7.858  1.00  0.00     0.217 HD
ENDBRANCH  11  22
TORSDOF 4
ENDMDL
MODEL 8
REMARK VINA RESULT:      -5.7      1.767      1.806
REMARK  4 active torsions:
REMARK  status: ('A' for Active; 'I' for Inactive)
REMARK    1  A    between atoms: O3_3  and  C7_12 
REMARK    2  A    between atoms: O4_4  and  C12_17 
REMARK    3  A    between atoms: O5_5  and  C15_20 
REMARK    4  A    between atoms: C1_6  and  C3_8 
ROOT
ATOM      1  O1  UNK     1      43.717   1.987   7.393  1.00  0.00    -0.340 OA
ATOM      2  O2  UNK     1      44.326   4.665  10.439  1.00  0.00    -0.292 OA
ATOM      3  C1  UNK     1      42.883   1.971   8.561  1.00  0.00     0.169 C 
ATOM      4  C2  UNK     1      42.761   3.368   9.167  1.00  0.00     0.121 C 
ATOM      5  C4  UNK     1      45.241   3.400   8.669  1.00  0.00     0.076 A 
ATOM      6  C5  UNK     1      44.135   3.870   9.528  1.00  0.00     0.167 C 
ATOM      7  C6  UNK     1      44.965   2.501   7.634  1.00  0.00     0.089 A 
ATOM      8  C7  UNK     1      46.539   3.880   8.859  1.00  0.00     0.085 A 
ATOM      9  C8  UNK     1      45.984   2.108   6.766  1.00  0.00     0.074 A 
ATOM     10  C11 UNK     1      47.559   3.467   8.001  1.00  0.00     0.074 A 
ATOM     11  C12 UNK     1      47.282   2.587   6.953  1.00  0.00     0.071 A 
ENDROOT
BRANCH   3  12
ATOM     12  C3  UNK     1      41.525   1.423   8.173  1.00  0.00    -0.028 A 
ATOM     13  C9  UNK     1      40.610   2.240   7.509  1.00  0.00     0.012 A 
ATOM     14  C13 UNK     1      39.359   1.735   7.151  1.00  0.00     0.037 A 
ATOM     15  C15 UNK     1      39.025   0.416   7.457  1.00  0.00     0.065 A 
ATOM     16  C14 UNK     1      39.942  -0.399   8.122  1.00  0.00     0.037 A 
ATOM     17  C10 UNK     1      41.193   0.105   8.479  1.00  0.00     0.012 A 
BRANCH  15  18
ATOM     18  O5  UNK     1      37.805  -0.076   7.108  1.00  0.00    -0.361 OA
ATOM     19  H12 UNK     1      37.674  -0.933   7.548  1.00  0.00     0.217 HD
ENDBRANCH  15  18
ENDBRANCH   3  12
BRANCH   8  20
ATOM     20  O3  UNK     1      46.863   4.752   9.854  1.00  0.00    -0.360 OA
ATOM     21  H10 UNK     1      46.093   4.889  10.430  1.00  0.00     0.217 HD
ENDBRANCH   8  20
BRANCH  11  22
ATOM     22  O4  UNK     1      48.279   2.194   6.114  1.00  0.00    -0.361 OA
ATOM     23  H11 UNK     1      48.359   2.843   5.393  1.00  0.00     0.217 HD
ENDBRANCH  11  22
TORSDOF 4
ENDMDL
MODEL 9
REMARK VINA RESULT:      -5.7      1.791      2.108
REMARK  4 active torsions:
REMARK  status: ('A' for Active; 'I' for Inactive)
REMARK    1  A    between atoms: O3_3  and  C7_12 
REMARK    2  A    between atoms: O4_4  and  C12_17 
REMARK    3  A    between atoms: O5_5  and  C15_20 
REMARK    4  A    between atoms: C1_6  and  C3_8 
ROOT
ATOM      1  O1  UNK     1      43.708   2.006   7.408  1.00  0.00    -0.340 OA
ATOM      2  O2  UNK     1      44.275   4.684  10.463  1.00  0.00    -0.292 OA
ATOM      3  C1  UNK     1      42.872   1.975   8.575  1.00  0.00     0.169 C 
ATOM      4  C2  UNK     1      42.729   3.369   9.184  1.00  0.00     0.121 C 
ATOM      5  C4  UNK     1      45.210   3.436   8.691  1.00  0.00     0.076 A 
ATOM      6  C5  UNK     1      44.096   3.889   9.550  1.00  0.00     0.167 C 
ATOM      7  C6  UNK     1      44.948   2.537   7.653  1.00  0.00     0.089 A 
ATOM      8  C7  UNK     1      46.501   3.934   8.884  1.00  0.00     0.085 A 
ATOM      9  C8  UNK     1      45.974   2.160   6.786  1.00  0.00     0.074 A 
ATOM     10  C11 UNK     1      47.528   3.537   8.027  1.00  0.00     0.074 A 
ATOM     11  C12 UNK     1      47.264   2.657   6.976  1.00  0.00     0.071 A 
ENDROOT
BRANCH   3  12
ATOM     12  C3  UNK     1      41.523   1.410   8.183  1.00  0.00    -0.028 A 
ATOM     13  C9  UNK     1      41.212   0.083   8.477  1.00  0.00     0.012 A 
ATOM     14  C13 UNK     1      39.969  -0.438   8.116  1.00  0.00     0.037 A 
ATOM     15  C15 UNK     1      39.038   0.369   7.462  1.00  0.00     0.065 A 
ATOM     16  C14 UNK     1      39.350   1.697   7.168  1.00  0.00     0.037 A 
ATOM     17  C10 UNK     1      40.593   2.217   7.530  1.00  0.00     0.012 A 
BRANCH  15  18
ATOM     18  O5  UNK     1      37.826  -0.139   7.109  1.00  0.00    -0.361 OA
ATOM     19  H12 UNK     1      37.454   0.401   6.391  1.00  0.00     0.217 HD
ENDBRANCH  15  18
ENDBRANCH   3  12
BRANCH   8  20
ATOM     20  O3  UNK     1      46.811   4.808   9.882  1.00  0.00    -0.360 OA
ATOM     21  H10 UNK     1      46.335   5.643   9.742  1.00  0.00     0.217 HD
ENDBRANCH   8  20
BRANCH  11  22
ATOM     22  O4  UNK     1      48.268   2.280   6.137  1.00  0.00    -0.361 OA
ATOM     23  H11 UNK     1      48.284   2.882   5.373  1.00  0.00     0.217 HD
ENDBRANCH  11  22
TORSDOF 4
ENDMDL
MODEL 10
REMARK VINA RESULT:      -5.7      2.376      7.370
REMARK  4 active torsions:
REMARK  status: ('A' for Active; 'I' for Inactive)
REMARK    1  A    between atoms: O3_3  and  C7_12 
REMARK    2  A    between atoms: O4_4  and  C12_17 
REMARK    3  A    between atoms: O5_5  and  C15_20 
REMARK    4  A    between atoms: C1_6  and  C3_8 
ROOT
ATOM      1  O1  UNK     1      46.311   1.938   9.757  1.00  0.00    -0.340 OA
ATOM      2  O2  UNK     1      44.059   1.037   6.449  1.00  0.00    -0.292 OA
ATOM      3  C1  UNK     1      46.940   1.594   8.513  1.00  0.00     0.169 C 
ATOM      4  C2  UNK     1      46.070   2.006   7.327  1.00  0.00     0.121 C 
ATOM      5  C4  UNK     1      44.250   1.051   8.802  1.00  0.00     0.076 A 
ATOM      6  C5  UNK     1      44.735   1.314   7.432  1.00  0.00     0.167 C 
ATOM      7  C6  UNK     1      45.058   1.399   9.889  1.00  0.00     0.089 A 
ATOM      8  C7  UNK     1      42.984   0.500   9.012  1.00  0.00     0.085 A 
ATOM      9  C8  UNK     1      44.582   1.227  11.189  1.00  0.00     0.074 A 
ATOM     10  C11 UNK     1      42.522   0.312  10.315  1.00  0.00     0.074 A 
ATOM     11  C12 UNK     1      43.316   0.679  11.402  1.00  0.00     0.071 A 
ENDROOT
BRANCH   3  12
ATOM     12  C3  UNK     1      48.294   2.271   8.458  1.00  0.00    -0.028 A 
ATOM     13  C9  UNK     1      49.230   2.037   9.465  1.00  0.00     0.012 A 
ATOM     14  C13 UNK     1      50.478   2.660   9.413  1.00  0.00     0.037 A 
ATOM     15  C15 UNK     1      50.788   3.515   8.357  1.00  0.00     0.065 A 
ATOM     16  C14 UNK     1      49.850   3.748   7.350  1.00  0.00     0.037 A 
ATOM     17  C10 UNK     1      48.603   3.125   7.401  1.00  0.00     0.012 A 
BRANCH  15  18
ATOM     18  O5  UNK     1      52.004   4.123   8.307  1.00  0.00    -0.361 OA
ATOM     19  H12 UNK     1      52.613   3.659   8.906  1.00  0.00     0.217 HD
ENDBRANCH  15  18
ENDBRANCH   3  12
BRANCH   8  20
ATOM     20  O3  UNK     1      42.159   0.139   7.990  1.00  0.00    -0.360 OA
ATOM     21  H10 UNK     1      41.247   0.070   8.316  1.00  0.00     0.217 HD
ENDBRANCH   8  20
BRANCH  11  22
ATOM     22  O4  UNK     1      42.857   0.500  12.671  1.00  0.00    -0.361 OA
ATOM     23  H11 UNK     1      43.108  -0.389  12.975  1.00  0.00     0.217 HD
ENDBRANCH  11  22
TORSDOF 4
ENDMDL
MODEL 11
REMARK VINA RESULT:      -5.7      5.447      8.070
REMARK  4 active torsions:
REMARK  status: ('A' for Active; 'I' for Inactive)
REMARK    1  A    between atoms: O3_3  and  C7_12 
REMARK    2  A    between atoms: O4_4  and  C12_17 
REMARK    3  A    between atoms: O5_5  and  C15_20 
REMARK    4  A    between atoms: C1_6  and  C3_8 
ROOT
ATOM      1  O1  UNK     1      38.990  -1.102   8.093  1.00  0.00    -0.340 OA
ATOM      2  O2  UNK     1      37.555  -3.387  11.183  1.00  0.00    -0.292 OA
ATOM      3  C1  UNK     1      38.359  -0.489   9.228  1.00  0.00     0.169 C 
ATOM      4  C2  UNK     1      38.565  -1.325  10.489  1.00  0.00     0.121 C 
ATOM      5  C4  UNK     1      38.046  -3.208   8.881  1.00  0.00     0.076 A 
ATOM      6  C5  UNK     1      37.990  -2.700  10.267  1.00  0.00     0.167 C 
ATOM      7  C6  UNK     1      38.564  -2.386   7.875  1.00  0.00     0.089 A 
ATOM      8  C7  UNK     1      37.626  -4.507   8.584  1.00  0.00     0.085 A 
ATOM      9  C8  UNK     1      38.694  -2.878   6.576  1.00  0.00     0.074 A 
ATOM     10  C11 UNK     1      37.739  -4.987   7.279  1.00  0.00     0.074 A 
ATOM     11  C12 UNK     1      38.277  -4.177   6.278  1.00  0.00     0.071 A 
ENDROOT
BRANCH   3  12
ATOM     12  C3  UNK     1      38.928   0.905   9.398  1.00  0.00    -0.028 A 
ATOM     13  C9  UNK     1      38.773   1.576  10.610  1.00  0.00     0.012 A 
ATOM     14  C13 UNK     1      39.299   2.860  10.766  1.00  0.00     0.037 A 
ATOM     15  C15 UNK     1      39.977   3.470   9.712  1.00  0.00     0.065 A 
ATOM     16  C14 UNK     1      40.131   2.796   8.499  1.00  0.00     0.037 A 
ATOM     17  C10 UNK     1      39.607   1.513   8.343  1.00  0.00     0.012 A 
BRANCH  15  18
ATOM     18  O5  UNK     1      40.488   4.721   9.864  1.00  0.00    -0.361 OA
ATOM     19  H12 UNK     1      39.834   5.370   9.553  1.00  0.00     0.217 HD
ENDBRANCH  15  18
ENDBRANCH   3  12
BRANCH   8  20
ATOM     20  O3  UNK     1      37.110  -5.346   9.524  1.00  0.00    -0.360 OA
ATOM     21  H10 UNK     1      37.825  -5.680  10.091  1.00  0.00     0.217 HD
ENDBRANCH   8  20
BRANCH  11  22
ATOM     22  O4  UNK     1      38.393  -4.652   5.007  1.00  0.00    -0.361 OA
ATOM     23  H11 UNK     1      38.344  -5.624   5.029  1.00  0.00     0.217 HD
ENDBRANCH  11  22
TORSDOF 4
ENDMDL
MODEL 12
REMARK VINA RESULT:      -5.7      7.321     10.502
REMARK  4 active torsions:
REMARK  status: ('A' for Active; 'I' for Inactive)
REMARK    1  A    between atoms: O3_3  and  C7_12 
REMARK    2  A    between atoms: O4_4  and  C12_17 
REMARK    3  A    between atoms: O5_5  and  C15_20 
REMARK    4  A    between atoms: C1_6  and  C3_8 
ROOT
ATOM      1  O1  UNK     1      37.710  -5.083   5.575  1.00  0.00    -0.340 OA
ATOM      2  O2  UNK     1      37.327  -6.375   9.449  1.00  0.00    -0.292 OA
ATOM      3  C1  UNK     1      37.981  -6.449   5.923  1.00  0.00     0.169 C 
ATOM      4  C2  UNK     1      37.134  -6.890   7.114  1.00  0.00     0.121 C 
ATOM      5  C4  UNK     1      37.798  -4.602   7.964  1.00  0.00     0.076 A 
ATOM      6  C5  UNK     1      37.434  -5.996   8.290  1.00  0.00     0.167 C 
ATOM      7  C6  UNK     1      37.894  -4.219   6.623  1.00  0.00     0.089 A 
ATOM      8  C7  UNK     1      38.003  -3.667   8.981  1.00  0.00     0.085 A 
ATOM      9  C8  UNK     1      38.161  -2.888   6.299  1.00  0.00     0.074 A 
ATOM     10  C11 UNK     1      38.291  -2.342   8.652  1.00  0.00     0.074 A 
ATOM     11  C12 UNK     1      38.364  -1.951   7.314  1.00  0.00     0.071 A 
ENDROOT
BRANCH   3  12
ATOM     12  C3  UNK     1      37.711  -7.315   4.710  1.00  0.00    -0.028 A 
ATOM     13  C9  UNK     1      38.576  -8.362   4.395  1.00  0.00     0.012 A 
ATOM     14  C13 UNK     1      38.326  -9.160   3.278  1.00  0.00     0.037 A 
ATOM     15  C15 UNK     1      37.213  -8.911   2.477  1.00  0.00     0.065 A 
ATOM     16  C14 UNK     1      36.347  -7.862   2.793  1.00  0.00     0.037 A 
ATOM     17  C10 UNK     1      36.596  -7.065   3.911  1.00  0.00     0.012 A 
BRANCH  15  18
ATOM     18  O5  UNK     1      36.969  -9.688   1.388  1.00  0.00    -0.361 OA
ATOM     19  H12 UNK     1      37.465 -10.520   1.477  1.00  0.00     0.217 HD
ENDBRANCH  15  18
ENDBRANCH   3  12
BRANCH   8  20
ATOM     20  O3  UNK     1      37.926  -3.988  10.303  1.00  0.00    -0.360 OA
ATOM     21  H10 UNK     1      37.238  -3.450  10.729  1.00  0.00     0.217 HD
ENDBRANCH   8  20
BRANCH  11  22
ATOM     22  O4  UNK     1      38.637  -0.655   6.998  1.00  0.00    -0.361 OA
ATOM     23  H11 UNK     1      38.057  -0.074   7.519  1.00  0.00     0.217 HD
ENDBRANCH  11  22
TORSDOF 4
ENDMDL
MODEL 13
REMARK VINA RESULT:      -5.6      5.980      9.591
REMARK  4 active torsions:
REMARK  status: ('A' for Active; 'I' for Inactive)
REMARK    1  A    between atoms: O3_3  and  C7_12 
REMARK    2  A    between atoms: O4_4  and  C12_17 
REMARK    3  A    between atoms: O5_5  and  C15_20 
REMARK    4  A    between atoms: C1_6  and  C3_8 
ROOT
ATOM      1  O1  UNK     1      38.616  -4.181   6.056  1.00  0.00    -0.340 OA
ATOM      2  O2  UNK     1      35.131  -2.314   7.153  1.00  0.00    -0.292 OA
ATOM      3  C1  UNK     1      37.400  -4.929   6.212  1.00  0.00     0.169 C 
ATOM      4  C2  UNK     1      36.181  -4.066   5.894  1.00  0.00     0.121 C 
ATOM      5  C4  UNK     1      37.490  -2.370   7.239  1.00  0.00     0.076 A 
ATOM      6  C5  UNK     1      36.167  -2.875   6.816  1.00  0.00     0.167 C 
ATOM      7  C6  UNK     1      38.641  -3.040   6.816  1.00  0.00     0.089 A 
ATOM      8  C7  UNK     1      37.591  -1.214   8.016  1.00  0.00     0.085 A 
ATOM      9  C8  UNK     1      39.899  -2.532   7.142  1.00  0.00     0.074 A 
ATOM     10  C11 UNK     1      38.852  -0.722   8.358  1.00  0.00     0.074 A 
ATOM     11  C12 UNK     1      40.004  -1.376   7.917  1.00  0.00     0.071 A 
ENDROOT
BRANCH   3  12
ATOM     12  C3  UNK     1      37.464  -6.140   5.304  1.00  0.00    -0.028 A 
ATOM     13  C9  UNK     1      36.811  -6.121   4.072  1.00  0.00     0.012 A 
ATOM     14  C13 UNK     1      36.870  -7.236   3.235  1.00  0.00     0.037 A 
ATOM     15  C15 UNK     1      37.580  -8.369   3.631  1.00  0.00     0.065 A 
ATOM     16  C14 UNK     1      38.233  -8.387   4.865  1.00  0.00     0.037 A 
ATOM     17  C10 UNK     1      38.175  -7.271   5.701  1.00  0.00     0.012 A 
BRANCH  15  18
ATOM     18  O5  UNK     1      37.637  -9.457   2.816  1.00  0.00    -0.361 OA
ATOM     19  H12 UNK     1      36.844 -10.000   2.960  1.00  0.00     0.217 HD
ENDBRANCH  15  18
ENDBRANCH   3  12
BRANCH   8  20
ATOM     20  O3  UNK     1      36.502  -0.526   8.459  1.00  0.00    -0.360 OA
ATOM     21  H10 UNK     1      36.288   0.183   7.830  1.00  0.00     0.217 HD
ENDBRANCH   8  20
BRANCH  11  22
ATOM     22  O4  UNK     1      41.231  -0.887   8.247  1.00  0.00    -0.361 OA
ATOM     23  H11 UNK     1      41.596  -0.410   7.481  1.00  0.00     0.217 HD
ENDBRANCH  11  22
TORSDOF 4
ENDMDL
MODEL 14
REMARK VINA RESULT:      -5.6      3.308      6.559
REMARK  4 active torsions:
REMARK  status: ('A' for Active; 'I' for Inactive)
REMARK    1  A    between atoms: O3_3  and  C7_12 
REMARK    2  A    between atoms: O4_4  and  C12_17 
REMARK    3  A    between atoms: O5_5  and  C15_20 
REMARK    4  A    between atoms: C1_6  and  C3_8 
ROOT
ATOM      1  O1  UNK     1      41.319   2.950   8.500  1.00  0.00    -0.340 OA
ATOM      2  O2  UNK     1      43.449  -0.458   9.317  1.00  0.00    -0.292 OA
ATOM      3  C1  UNK     1      42.360   2.955   9.489  1.00  0.00     0.169 C 
ATOM      4  C2  UNK     1      43.444   1.935   9.149  1.00  0.00     0.121 C 
ATOM      5  C4  UNK     1      41.421   0.517   8.605  1.00  0.00     0.076 A 
ATOM      6  C5  UNK     1      42.822   0.564   9.071  1.00  0.00     0.167 C 
ATOM      7  C6  UNK     1      40.755   1.713   8.325  1.00  0.00     0.089 A 
ATOM      8  C7  UNK     1      40.782  -0.710   8.406  1.00  0.00     0.085 A 
ATOM      9  C8  UNK     1      39.458   1.682   7.811  1.00  0.00     0.074 A 
ATOM     10  C11 UNK     1      39.477  -0.734   7.911  1.00  0.00     0.074 A 
ATOM     11  C12 UNK     1      38.818   0.458   7.609  1.00  0.00     0.071 A 
ENDROOT
BRANCH   3  12
ATOM     12  C3  UNK     1      42.934   4.354   9.573  1.00  0.00    -0.028 A 
ATOM     13  C9  UNK     1      42.147   5.402  10.050  1.00  0.00     0.012 A 
ATOM     14  C13 UNK     1      42.677   6.691  10.128  1.00  0.00     0.037 A 
ATOM     15  C15 UNK     1      43.991   6.931   9.728  1.00  0.00     0.065 A 
ATOM     16  C14 UNK     1      44.778   5.881   9.250  1.00  0.00     0.037 A 
ATOM     17  C10 UNK     1      44.248   4.593   9.174  1.00  0.00     0.012 A 
BRANCH  15  18
ATOM     18  O5  UNK     1      44.508   8.187   9.803  1.00  0.00    -0.361 OA
ATOM     19  H12 UNK     1      44.830   8.449   8.924  1.00  0.00     0.217 HD
ENDBRANCH  15  18
ENDBRANCH   3  12
BRANCH   8  20
ATOM     20  O3  UNK     1      41.382  -1.904   8.667  1.00  0.00    -0.360 OA
ATOM     21  H10 UNK     1      41.242  -2.141   9.599  1.00  0.00     0.217 HD
ENDBRANCH   8  20
BRANCH  11  22
ATOM     22  O4  UNK     1      37.548   0.428   7.120  1.00  0.00    -0.361 OA
ATOM     23  H11 UNK     1      36.927   0.636   7.840  1.00  0.00     0.217 HD
ENDBRANCH  11  22
TORSDOF 4
ENDMDL
MODEL 15
REMARK VINA RESULT:      -5.6      1.179      1.808
REMARK  4 active torsions:
REMARK  status: ('A' for Active; 'I' for Inactive)
REMARK    1  A    between atoms: O3_3  and  C7_12 
REMARK    2  A    between atoms: O4_4  and  C12_17 
REMARK    3  A    between atoms: O5_5  and  C15_20 
REMARK    4  A    between atoms: C1_6  and  C3_8 
ROOT
ATOM      1  O1  UNK     1      44.997   1.529   8.065  1.00  0.00    -0.340 OA
ATOM      2  O2  UNK     1      47.272   0.680  11.371  1.00  0.00    -0.292 OA
ATOM      3  C1  UNK     1      44.624   0.469   8.960  1.00  0.00     0.169 C 
ATOM      4  C2  UNK     1      45.087   0.767  10.384  1.00  0.00     0.121 C 
ATOM      5  C4  UNK     1      47.176   1.500   9.159  1.00  0.00     0.076 A 
ATOM      6  C5  UNK     1      46.585   0.935  10.390  1.00  0.00     0.167 C 
ATOM      7  C6  UNK     1      46.344   1.786   8.073  1.00  0.00     0.089 A 
ATOM      8  C7  UNK     1      48.542   1.785   9.096  1.00  0.00     0.085 A 
ATOM      9  C8  UNK     1      46.874   2.390   6.933  1.00  0.00     0.074 A 
ATOM     10  C11 UNK     1      49.071   2.370   7.944  1.00  0.00     0.074 A 
ATOM     11  C12 UNK     1      48.238   2.678   6.867  1.00  0.00     0.071 A 
ENDROOT
BRANCH   3  12
ATOM     12  C3  UNK     1      43.121   0.298   8.899  1.00  0.00    -0.028 A 
ATOM     13  C9  UNK     1      42.508  -0.728   9.617  1.00  0.00     0.012 A 
ATOM     14  C13 UNK     1      41.122  -0.886   9.561  1.00  0.00     0.037 A 
ATOM     15  C15 UNK     1      40.352  -0.018   8.788  1.00  0.00     0.065 A 
ATOM     16  C14 UNK     1      40.967   1.008   8.070  1.00  0.00     0.037 A 
ATOM     17  C10 UNK     1      42.351   1.166   8.126  1.00  0.00     0.012 A 
BRANCH  15  18
ATOM     18  O5  UNK     1      39.001  -0.172   8.734  1.00  0.00    -0.361 OA
ATOM     19  H12 UNK     1      38.597   0.330   9.461  1.00  0.00     0.217 HD
ENDBRANCH  15  18
ENDBRANCH   3  12
BRANCH   8  20
ATOM     20  O3  UNK     1      49.398   1.522  10.122  1.00  0.00    -0.360 OA
ATOM     21  H10 UNK     1      49.926   0.735   9.912  1.00  0.00     0.217 HD
ENDBRANCH   8  20
BRANCH  11  22
ATOM     22  O4  UNK     1      48.758   3.256   5.750  1.00  0.00    -0.361 OA
ATOM     23  H11 UNK     1      49.617   2.845   5.553  1.00  0.00     0.217 HD
ENDBRANCH  11  22
TORSDOF 4
ENDMDL
MODEL 16
REMARK VINA RESULT:      -5.6      2.398      4.855
REMARK  4 active torsions:
REMARK  status: ('A' for Active; 'I' for Inactive)
REMARK    1  A    between atoms: O3_3  and  C7_12 
REMARK    2  A    between atoms: O4_4  and  C12_17 
REMARK    3  A    between atoms: O5_5  and  C15_20 
REMARK    4  A    between atoms: C1_6  and  C3_8 
ROOT
ATOM      1  O1  UNK     1      47.859   1.509   9.464  1.00  0.00    -0.340 OA
ATOM      2  O2  UNK     1      49.621   3.846   6.590  1.00  0.00    -0.292 OA
ATOM      3  C1  UNK     1      47.062   2.332   8.597  1.00  0.00     0.169 C 
ATOM      4  C2  UNK     1      47.736   2.511   7.239  1.00  0.00     0.121 C 
ATOM      5  C4  UNK     1      49.778   2.806   8.703  1.00  0.00     0.076 A 
ATOM      6  C5  UNK     1      49.089   3.143   7.440  1.00  0.00     0.167 C 
ATOM      7  C6  UNK     1      49.131   1.989   9.634  1.00  0.00     0.089 A 
ATOM      8  C7  UNK     1      51.076   3.263   8.946  1.00  0.00     0.085 A 
ATOM      9  C8  UNK     1      49.798   1.599  10.796  1.00  0.00     0.074 A 
ATOM     10  C11 UNK     1      51.730   2.887  10.120  1.00  0.00     0.074 A 
ATOM     11  C12 UNK     1      51.095   2.052  11.041  1.00  0.00     0.071 A 
ENDROOT
BRANCH   3  12
ATOM     12  C3  UNK     1      45.697   1.691   8.450  1.00  0.00    -0.028 A 
ATOM     13  C9  UNK     1      45.257   0.766   9.396  1.00  0.00     0.012 A 
ATOM     14  C13 UNK     1      43.999   0.177   9.259  1.00  0.00     0.037 A 
ATOM     15  C15 UNK     1      43.185   0.512   8.179  1.00  0.00     0.065 A 
ATOM     16  C14 UNK     1      43.627   1.438   7.232  1.00  0.00     0.037 A 
ATOM     17  C10 UNK     1      44.884   2.028   7.369  1.00  0.00     0.012 A 
BRANCH  15  18
ATOM     18  O5  UNK     1      41.959  -0.064   8.046  1.00  0.00    -0.361 OA
ATOM     19  H12 UNK     1      41.670  -0.395   8.913  1.00  0.00     0.217 HD
ENDBRANCH  15  18
ENDBRANCH   3  12
BRANCH   8  20
ATOM     20  O3  UNK     1      51.749   4.065   8.075  1.00  0.00    -0.360 OA
ATOM     21  H10 UNK     1      52.273   4.716   8.571  1.00  0.00     0.217 HD
ENDBRANCH   8  20
BRANCH  11  22
ATOM     22  O4  UNK     1      51.741   1.682  12.181  1.00  0.00    -0.361 OA
ATOM     23  H11 UNK     1      51.135   1.153  12.729  1.00  0.00     0.217 HD
ENDBRANCH  11  22
TORSDOF 4
ENDMDL
MODEL 17
REMARK VINA RESULT:      -5.6      3.758      8.164
REMARK  4 active torsions:
REMARK  status: ('A' for Active; 'I' for Inactive)
REMARK    1  A    between atoms: O3_3  and  C7_12 
REMARK    2  A    between atoms: O4_4  and  C12_17 
REMARK    3  A    between atoms: O5_5  and  C15_20 
REMARK    4  A    between atoms: C1_6  and  C3_8 
ROOT
ATOM      1  O1  UNK     1      39.536  -0.390   7.817  1.00  0.00    -0.340 OA
ATOM      2  O2  UNK     1      35.624  -0.039   8.998  1.00  0.00    -0.292 OA
ATOM      3  C1  UNK     1      38.958   0.900   8.067  1.00  0.00     0.169 C 
ATOM      4  C2  UNK     1      37.862   0.814   9.127  1.00  0.00     0.121 C 
ATOM      5  C4  UNK     1      37.257  -1.255   7.803  1.00  0.00     0.076 A 
ATOM      6  C5  UNK     1      36.795  -0.139   8.655  1.00  0.00     0.167 C 
ATOM      7  C6  UNK     1      38.607  -1.329   7.451  1.00  0.00     0.089 A 
ATOM      8  C7  UNK     1      36.364  -2.247   7.390  1.00  0.00     0.085 A 
ATOM      9  C8  UNK     1      39.073  -2.417   6.712  1.00  0.00     0.074 A 
ATOM     10  C11 UNK     1      36.831  -3.323   6.633  1.00  0.00     0.074 A 
ATOM     11  C12 UNK     1      38.184  -3.411   6.300  1.00  0.00     0.071 A 
ENDROOT
BRANCH   3  12
ATOM     12  C3  UNK     1      40.062   1.843   8.500  1.00  0.00    -0.028 A 
ATOM     13  C9  UNK     1      41.364   1.647   8.040  1.00  0.00     0.012 A 
ATOM     14  C13 UNK     1      42.381   2.517   8.438  1.00  0.00     0.037 A 
ATOM     15  C15 UNK     1      42.095   3.580   9.294  1.00  0.00     0.065 A 
ATOM     16  C14 UNK     1      40.791   3.775   9.753  1.00  0.00     0.037 A 
ATOM     17  C10 UNK     1      39.775   2.906   9.354  1.00  0.00     0.012 A 
BRANCH  15  18
ATOM     18  O5  UNK     1      43.086   4.427   9.682  1.00  0.00    -0.361 OA
ATOM     19  H12 UNK     1      42.689   5.264   9.977  1.00  0.00     0.217 HD
ENDBRANCH  15  18
ENDBRANCH   3  12
BRANCH   8  20
ATOM     20  O3  UNK     1      35.038  -2.221   7.701  1.00  0.00    -0.360 OA
ATOM     21  H10 UNK     1      34.706  -3.130   7.786  1.00  0.00     0.217 HD
ENDBRANCH   8  20
BRANCH  11  22
ATOM     22  O4  UNK     1      38.636  -4.466   5.568  1.00  0.00    -0.361 OA
ATOM     23  H11 UNK     1      39.274  -4.970   6.102  1.00  0.00     0.217 HD
ENDBRANCH  11  22
TORSDOF 4
ENDMDL
MODEL 18
REMARK VINA RESULT:      -5.6      3.760      8.152
REMARK  4 active torsions:
REMARK  status: ('A' for Active; 'I' for Inactive)
REMARK    1  A    between atoms: O3_3  and  C7_12 
REMARK    2  A    between atoms: O4_4  and  C12_17 
REMARK    3  A    between atoms: O5_5  and  C15_20 
REMARK    4  A    between atoms: C1_6  and  C3_8 
ROOT
ATOM      1  O1  UNK     1      39.523  -0.385   7.819  1.00  0.00    -0.340 OA
ATOM      2  O2  UNK     1      35.609  -0.024   8.989  1.00  0.00    -0.292 OA
ATOM      3  C1  UNK     1      38.948   0.907   8.068  1.00  0.00     0.169 C 
ATOM      4  C2  UNK     1      37.849   0.823   9.124  1.00  0.00     0.121 C 
ATOM      5  C4  UNK     1      37.241  -1.244   7.799  1.00  0.00     0.076 A 
ATOM      6  C5  UNK     1      36.780  -0.127   8.649  1.00  0.00     0.167 C 
ATOM      7  C6  UNK     1      38.593  -1.322   7.451  1.00  0.00     0.089 A 
ATOM      8  C7  UNK     1      36.348  -2.234   7.384  1.00  0.00     0.085 A 
ATOM      9  C8  UNK     1      39.058  -2.411   6.714  1.00  0.00     0.074 A 
ATOM     10  C11 UNK     1      36.814  -3.311   6.629  1.00  0.00     0.074 A 
ATOM     11  C12 UNK     1      38.167  -3.403   6.299  1.00  0.00     0.071 A 
ENDROOT
BRANCH   3  12
ATOM     12  C3  UNK     1      40.053   1.847   8.503  1.00  0.00    -0.028 A 
ATOM     13  C9  UNK     1      39.763   2.918   9.348  1.00  0.00     0.012 A 
ATOM     14  C13 UNK     1      40.781   3.784   9.749  1.00  0.00     0.037 A 
ATOM     15  C15 UNK     1      42.087   3.579   9.305  1.00  0.00     0.065 A 
ATOM     16  C14 UNK     1      42.376   2.507   8.458  1.00  0.00     0.037 A 
ATOM     17  C10 UNK     1      41.358   1.641   8.059  1.00  0.00     0.012 A 
BRANCH  15  18
ATOM     18  O5  UNK     1      43.079   4.424   9.695  1.00  0.00    -0.361 OA
ATOM     19  H12 UNK     1      43.918   4.130   9.300  1.00  0.00     0.217 HD
ENDBRANCH  15  18
ENDBRANCH   3  12
BRANCH   8  20
ATOM     20  O3  UNK     1      35.021  -2.204   7.691  1.00  0.00    -0.360 OA
ATOM     21  H10 UNK     1      34.911  -2.035   8.641  1.00  0.00     0.217 HD
ENDBRANCH   8  20
BRANCH  11  22
ATOM     22  O4  UNK     1      38.619  -4.460   5.569  1.00  0.00    -0.361 OA
ATOM     23  H11 UNK     1      38.303  -5.284   5.978  1.00  0.00     0.217 HD
ENDBRANCH  11  22
TORSDOF 4
ENDMDL
MODEL 19
REMARK VINA RESULT:      -5.6      2.499      6.576
REMARK  4 active torsions:
REMARK  status: ('A' for Active; 'I' for Inactive)
REMARK    1  A    between atoms: O3_3  and  C7_12 
REMARK    2  A    between atoms: O4_4  and  C12_17 
REMARK    3  A    between atoms: O5_5  and  C15_20 
REMARK    4  A    between atoms: C1_6  and  C3_8 
ROOT
ATOM      1  O1  UNK     1      42.414   2.592   8.036  1.00  0.00    -0.340 OA
ATOM      2  O2  UNK     1      42.706  -1.184   9.611  1.00  0.00    -0.292 OA
ATOM      3  C1  UNK     1      43.216   2.343   9.200  1.00  0.00     0.169 C 
ATOM      4  C2  UNK     1      43.775   0.921   9.187  1.00  0.00     0.121 C 
ATOM      5  C4  UNK     1      41.421   0.399   8.420  1.00  0.00     0.076 A 
ATOM      6  C5  UNK     1      42.629  -0.057   9.139  1.00  0.00     0.167 C 
ATOM      7  C6  UNK     1      41.391   1.691   7.890  1.00  0.00     0.089 A 
ATOM      8  C7  UNK     1      40.339  -0.465   8.236  1.00  0.00     0.085 A 
ATOM      9  C8  UNK     1      40.290   2.109   7.142  1.00  0.00     0.074 A 
ATOM     10  C11 UNK     1      39.231  -0.035   7.505  1.00  0.00     0.074 A 
ATOM     11  C12 UNK     1      39.208   1.247   6.955  1.00  0.00     0.071 A 
ENDROOT
BRANCH   3  12
ATOM     12  C3  UNK     1      44.332   3.367   9.241  1.00  0.00    -0.028 A 
ATOM     13  C9  UNK     1      44.029   4.727   9.195  1.00  0.00     0.012 A 
ATOM     14  C13 UNK     1      45.057   5.671   9.234  1.00  0.00     0.037 A 
ATOM     15  C15 UNK     1      46.385   5.253   9.317  1.00  0.00     0.065 A 
ATOM     16  C14 UNK     1      46.686   3.891   9.363  1.00  0.00     0.037 A 
ATOM     17  C10 UNK     1      45.659   2.948   9.325  1.00  0.00     0.012 A 
BRANCH  15  18
ATOM     18  O5  UNK     1      47.387   6.173   9.354  1.00  0.00    -0.361 OA
ATOM     19  H12 UNK     1      47.339   6.658  10.195  1.00  0.00     0.217 HD
ENDBRANCH  15  18
ENDBRANCH   3  12
BRANCH   8  20
ATOM     20  O3  UNK     1      40.315  -1.732   8.735  1.00  0.00    -0.360 OA
ATOM     21  H10 UNK     1      41.224  -2.058   8.842  1.00  0.00     0.217 HD
ENDBRANCH   8  20
BRANCH  11  22
ATOM     22  O4  UNK     1      38.127   1.659   6.236  1.00  0.00    -0.361 OA
ATOM     23  H11 UNK     1      38.428   1.971   5.365  1.00  0.00     0.217 HD
ENDBRANCH  11  22
TORSDOF 4
ENDMDL
MODEL 20
REMARK VINA RESULT:      -5.6      2.465      3.202
REMARK  4 active torsions:
REMARK  status: ('A' for Active; 'I' for Inactive)
REMARK    1  A    between atoms: O3_3  and  C7_12 
REMARK    2  A    between atoms: O4_4  and  C12_17 
REMARK    3  A    between atoms: O5_5  and  C15_20 
REMARK    4  A    between atoms: C1_6  and  C3_8 
ROOT
ATOM      1  O1  UNK     1      42.499   3.065   8.920  1.00  0.00    -0.340 OA
ATOM      2  O2  UNK     1      45.923   1.648   7.162  1.00  0.00    -0.292 OA
ATOM      3  C1  UNK     1      42.438   2.297   7.708  1.00  0.00     0.169 C 
ATOM      4  C2  UNK     1      43.596   1.304   7.630  1.00  0.00     0.121 C 
ATOM      5  C4  UNK     1      44.885   3.306   8.483  1.00  0.00     0.076 A 
ATOM      6  C5  UNK     1      44.897   2.061   7.688  1.00  0.00     0.167 C 
ATOM      7  C6  UNK     1      43.690   3.726   9.073  1.00  0.00     0.089 A 
ATOM      8  C7  UNK     1      46.062   4.033   8.679  1.00  0.00     0.085 A 
ATOM      9  C8  UNK     1      43.679   4.857   9.890  1.00  0.00     0.074 A 
ATOM     10  C11 UNK     1      46.041   5.175   9.480  1.00  0.00     0.074 A 
ATOM     11  C12 UNK     1      44.853   5.584  10.089  1.00  0.00     0.071 A 
ENDROOT
BRANCH   3  12
ATOM     12  C3  UNK     1      41.103   1.583   7.661  1.00  0.00    -0.028 A 
ATOM     13  C9  UNK     1      39.997   2.211   7.088  1.00  0.00     0.012 A 
ATOM     14  C13 UNK     1      38.768   1.553   7.044  1.00  0.00     0.037 A 
ATOM     15  C15 UNK     1      38.644   0.268   7.573  1.00  0.00     0.065 A 
ATOM     16  C14 UNK     1      39.751  -0.359   8.146  1.00  0.00     0.037 A 
ATOM     17  C10 UNK     1      40.980   0.298   8.189  1.00  0.00     0.012 A 
BRANCH  15  18
ATOM     18  O5  UNK     1      37.445  -0.373   7.530  1.00  0.00    -0.361 OA
ATOM     19  H12 UNK     1      37.588  -1.321   7.695  1.00  0.00     0.217 HD
ENDBRANCH  15  18
ENDBRANCH   3  12
BRANCH   8  20
ATOM     20  O3  UNK     1      47.252   3.671   8.124  1.00  0.00    -0.360 OA
ATOM     21  H10 UNK     1      47.981   4.080   8.621  1.00  0.00     0.217 HD
ENDBRANCH   8  20
BRANCH  11  22
ATOM     22  O4  UNK     1      44.840   6.695  10.876  1.00  0.00    -0.361 OA
ATOM     23  H11 UNK     1      45.510   6.595  11.575  1.00  0.00     0.217 HD
ENDBRANCH  11  22
TORSDOF 4
ENDMDL
