MODEL 1
REMARK VINA RESULT:      -7.4      0.000      0.000
REMARK  4 active torsions:
REMARK  status: ('A' for Active; 'I' for Inactive)
REMARK    1  A    between atoms: O3_3  and  C7_12 
REMARK    2  A    between atoms: O4_4  and  C12_17 
REMARK    3  A    between atoms: O5_5  and  C15_20 
REMARK    4  A    between atoms: C1_6  and  C3_8 
ROOT
ATOM      1  O1  UNK     1      39.881  15.478  -0.021  1.00  0.00    -0.340 OA
ATOM      2  O2  UNK     1      41.297  16.382  -3.764  1.00  0.00    -0.292 OA
ATOM      3  C1  UNK     1      40.072  14.447  -1.002  1.00  0.00     0.169 C 
ATOM      4  C2  UNK     1      41.208  14.804  -1.959  1.00  0.00     0.121 C 
ATOM      5  C4  UNK     1      40.088  17.070  -1.856  1.00  0.00     0.076 A 
ATOM      6  C5  UNK     1      40.882  16.106  -2.645  1.00  0.00     0.167 C 
ATOM      7  C6  UNK     1      39.651  16.709  -0.579  1.00  0.00     0.089 A 
ATOM      8  C7  UNK     1      39.813  18.343  -2.362  1.00  0.00     0.085 A 
ATOM      9  C8  UNK     1      38.966  17.636   0.209  1.00  0.00     0.074 A 
ATOM     10  C11 UNK     1      39.109  19.259  -1.579  1.00  0.00     0.074 A 
ATOM     11  C12 UNK     1      38.692  18.909  -0.294  1.00  0.00     0.071 A 
ENDROOT
BRANCH   3  12
ATOM     12  C3  UNK     1      40.355  13.146  -0.280  1.00  0.00    -0.028 A 
ATOM     13  C9  UNK     1      40.953  12.087  -0.964  1.00  0.00     0.012 A 
ATOM     14  C13 UNK     1      41.214  10.888  -0.299  1.00  0.00     0.037 A 
ATOM     15  C15 UNK     1      40.878  10.750   1.047  1.00  0.00     0.065 A 
ATOM     16  C14 UNK     1      40.280  11.810   1.730  1.00  0.00     0.037 A 
ATOM     17  C10 UNK     1      40.020  13.008   1.065  1.00  0.00     0.012 A 
BRANCH  15  18
ATOM     18  O5  UNK     1      41.132   9.580   1.696  1.00  0.00    -0.361 OA
ATOM     19  H12 UNK     1      42.004   9.639   2.122  1.00  0.00     0.217 HD
ENDBRANCH  15  18
ENDBRANCH   3  12
BRANCH   8  20
ATOM     20  O3  UNK     1      40.211  18.745  -3.601  1.00  0.00    -0.360 OA
ATOM     21  H10 UNK     1      39.431  18.912  -4.156  1.00  0.00     0.217 HD
ENDBRANCH   8  20
BRANCH  11  22
ATOM     22  O4  UNK     1      38.013  19.809   0.469  1.00  0.00    -0.361 OA
ATOM     23  H11 UNK     1      38.082  20.687   0.057  1.00  0.00     0.217 HD
ENDBRANCH  11  22
TORSDOF 4
ENDMDL
MODEL 2
REMARK VINA RESULT:      -7.4      0.025      1.081
REMARK  4 active torsions:
REMARK  status: ('A' for Active; 'I' for Inactive)
REMARK    1  A    between atoms: O3_3  and  C7_12 
REMARK    2  A    between atoms: O4_4  and  C12_17 
REMARK    3  A    between atoms: O5_5  and  C15_20 
REMARK    4  A    between atoms: C1_6  and  C3_8 
ROOT
ATOM      1  O1  UNK     1      39.875  15.484  -0.011  1.00  0.00    -0.340 OA
ATOM      2  O2  UNK     1      41.284  16.411  -3.750  1.00  0.00    -0.292 OA
ATOM      3  C1  UNK     1      40.067  14.459  -0.998  1.00  0.00     0.169 C 
ATOM      4  C2  UNK     1      41.201  14.823  -1.953  1.00  0.00     0.121 C 
ATOM      5  C4  UNK     1      40.076  17.086  -1.838  1.00  0.00     0.076 A 
ATOM      6  C5  UNK     1      40.872  16.128  -2.633  1.00  0.00     0.167 C 
ATOM      7  C6  UNK     1      39.641  16.717  -0.562  1.00  0.00     0.089 A 
ATOM      8  C7  UNK     1      39.797  18.361  -2.338  1.00  0.00     0.085 A 
ATOM      9  C8  UNK     1      38.955  17.638   0.230  1.00  0.00     0.074 A 
ATOM     10  C11 UNK     1      39.092  19.271  -1.549  1.00  0.00     0.074 A 
ATOM     11  C12 UNK     1      38.676  18.913  -0.266  1.00  0.00     0.071 A 
ENDROOT
BRANCH   3  12
ATOM     12  C3  UNK     1      40.354  13.154  -0.283  1.00  0.00    -0.028 A 
ATOM     13  C9  UNK     1      40.024  13.012   1.065  1.00  0.00     0.012 A 
ATOM     14  C13 UNK     1      40.289  11.810   1.723  1.00  0.00     0.037 A 
ATOM     15  C15 UNK     1      40.882  10.753   1.035  1.00  0.00     0.065 A 
ATOM     16  C14 UNK     1      41.212  10.897  -0.314  1.00  0.00     0.037 A 
ATOM     17  C10 UNK     1      40.947  12.098  -0.972  1.00  0.00     0.012 A 
BRANCH  15  18
ATOM     18  O5  UNK     1      41.140   9.582   1.677  1.00  0.00    -0.361 OA
ATOM     19  H12 UNK     1      40.404   8.967   1.520  1.00  0.00     0.217 HD
ENDBRANCH  15  18
ENDBRANCH   3  12
BRANCH   8  20
ATOM     20  O3  UNK     1      40.193  18.769  -3.575  1.00  0.00    -0.360 OA
ATOM     21  H10 UNK     1      41.148  18.624  -3.676  1.00  0.00     0.217 HD
ENDBRANCH   8  20
BRANCH  11  22
ATOM     22  O4  UNK     1      37.996  19.807   0.503  1.00  0.00    -0.361 OA
ATOM     23  H11 UNK     1      37.051  19.576   0.495  1.00  0.00     0.217 HD
ENDBRANCH  11  22
TORSDOF 4
ENDMDL
MODEL 3
REMARK VINA RESULT:      -7.4      2.429      7.128
REMARK  4 active torsions:
REMARK  status: ('A' for Active; 'I' for Inactive)
REMARK    1  A    between atoms: O3_3  and  C7_12 
REMARK    2  A    between atoms: O4_4  and  C12_17 
REMARK    3  A    between atoms: O5_5  and  C15_20 
REMARK    4  A    between atoms: C1_6  and  C3_8 
ROOT
ATOM      1  O1  UNK     1      40.410  17.048  -1.012  1.00  0.00    -0.340 OA
ATOM      2  O2  UNK     1      36.899  14.968  -0.593  1.00  0.00    -0.292 OA
ATOM      3  C1  UNK     1      39.146  17.684  -1.258  1.00  0.00     0.169 C 
ATOM      4  C2  UNK     1      38.045  17.067  -0.399  1.00  0.00     0.121 C 
ATOM      5  C4  UNK     1      39.204  14.930  -1.101  1.00  0.00     0.076 A 
ATOM      6  C5  UNK     1      37.944  15.596  -0.711  1.00  0.00     0.167 C 
ATOM      7  C6  UNK     1      40.372  15.692  -1.208  1.00  0.00     0.089 A 
ATOM      8  C7  UNK     1      39.239  13.551  -1.319  1.00  0.00     0.085 A 
ATOM      9  C8  UNK     1      41.584  15.066  -1.500  1.00  0.00     0.074 A 
ATOM     10  C11 UNK     1      40.450  12.933  -1.631  1.00  0.00     0.074 A 
ATOM     11  C12 UNK     1      41.622  13.687  -1.716  1.00  0.00     0.071 A 
ENDROOT
BRANCH   3  12
ATOM     12  C3  UNK     1      39.293  19.165  -0.975  1.00  0.00    -0.028 A 
ATOM     13  C9  UNK     1      38.642  19.732   0.120  1.00  0.00     0.012 A 
ATOM     14  C13 UNK     1      38.777  21.097   0.380  1.00  0.00     0.037 A 
ATOM     15  C15 UNK     1      39.563  21.892  -0.454  1.00  0.00     0.065 A 
ATOM     16  C14 UNK     1      40.214  21.322  -1.550  1.00  0.00     0.037 A 
ATOM     17  C10 UNK     1      40.079  19.959  -1.809  1.00  0.00     0.012 A 
BRANCH  15  18
ATOM     18  O5  UNK     1      39.694  23.222  -0.200  1.00  0.00    -0.361 OA
ATOM     19  H12 UNK     1      39.608  23.371   0.756  1.00  0.00     0.217 HD
ENDBRANCH  15  18
ENDBRANCH   3  12
BRANCH   8  20
ATOM     20  O3  UNK     1      38.131  12.764  -1.233  1.00  0.00    -0.360 OA
ATOM     21  H10 UNK     1      38.006  12.477  -0.313  1.00  0.00     0.217 HD
ENDBRANCH   8  20
BRANCH  11  22
ATOM     22  O4  UNK     1      42.803  13.078  -2.013  1.00  0.00    -0.361 OA
ATOM     23  H11 UNK     1      43.460  13.317  -1.337  1.00  0.00     0.217 HD
ENDBRANCH  11  22
TORSDOF 4
ENDMDL
MODEL 4
REMARK VINA RESULT:      -7.1      1.297      3.010
REMARK  4 active torsions:
REMARK  status: ('A' for Active; 'I' for Inactive)
REMARK    1  A    between atoms: O3_3  and  C7_12 
REMARK    2  A    between atoms: O4_4  and  C12_17 
REMARK    3  A    between atoms: O5_5  and  C15_20 
REMARK    4  A    between atoms: C1_6  and  C3_8 
ROOT
ATOM      1  O1  UNK     1      40.478  15.169  -2.033  1.00  0.00    -0.340 OA
ATOM      2  O2  UNK     1      38.805  18.106   0.290  1.00  0.00    -0.292 OA
ATOM      3  C1  UNK     1      40.530  15.090  -0.601  1.00  0.00     0.169 C 
ATOM      4  C2  UNK     1      39.322  15.778   0.031  1.00  0.00     0.121 C 
ATOM      5  C4  UNK     1      39.843  17.505  -1.743  1.00  0.00     0.076 A 
ATOM      6  C5  UNK     1      39.298  17.222  -0.399  1.00  0.00     0.167 C 
ATOM      7  C6  UNK     1      40.382  16.456  -2.493  1.00  0.00     0.089 A 
ATOM      8  C7  UNK     1      39.781  18.795  -2.275  1.00  0.00     0.085 A 
ATOM      9  C8  UNK     1      40.830  16.693  -3.794  1.00  0.00     0.074 A 
ATOM     10  C11 UNK     1      40.250  19.030  -3.568  1.00  0.00     0.074 A 
ATOM     11  C12 UNK     1      40.768  17.980  -4.329  1.00  0.00     0.071 A 
ENDROOT
BRANCH   3  12
ATOM     12  C3  UNK     1      40.595  13.629  -0.204  1.00  0.00    -0.028 A 
ATOM     13  C9  UNK     1      40.149  13.230   1.056  1.00  0.00     0.012 A 
ATOM     14  C13 UNK     1      40.208  11.884   1.421  1.00  0.00     0.037 A 
ATOM     15  C15 UNK     1      40.714  10.941   0.528  1.00  0.00     0.065 A 
ATOM     16  C14 UNK     1      41.160  11.342  -0.732  1.00  0.00     0.037 A 
ATOM     17  C10 UNK     1      41.099  12.686  -1.098  1.00  0.00     0.012 A 
BRANCH  15  18
ATOM     18  O5  UNK     1      40.772   9.628   0.884  1.00  0.00    -0.361 OA
ATOM     19  H12 UNK     1      41.703   9.378   1.014  1.00  0.00     0.217 HD
ENDBRANCH  15  18
ENDBRANCH   3  12
BRANCH   8  20
ATOM     20  O3  UNK     1      39.270  19.853  -1.586  1.00  0.00    -0.360 OA
ATOM     21  H10 UNK     1      39.531  19.789  -0.652  1.00  0.00     0.217 HD
ENDBRANCH   8  20
BRANCH  11  22
ATOM     22  O4  UNK     1      41.217  18.213  -5.593  1.00  0.00    -0.361 OA
ATOM     23  H11 UNK     1      40.582  18.792  -6.051  1.00  0.00     0.217 HD
ENDBRANCH  11  22
TORSDOF 4
ENDMDL
MODEL 5
REMARK VINA RESULT:      -6.4      1.559      6.779
REMARK  4 active torsions:
REMARK  status: ('A' for Active; 'I' for Inactive)
REMARK    1  A    between atoms: O3_3  and  C7_12 
REMARK    2  A    between atoms: O4_4  and  C12_17 
REMARK    3  A    between atoms: O5_5  and  C15_20 
REMARK    4  A    between atoms: C1_6  and  C3_8 
ROOT
ATOM      1  O1  UNK     1      40.151  14.011   0.669  1.00  0.00    -0.340 OA
ATOM      2  O2  UNK     1      41.607  10.597  -1.078  1.00  0.00    -0.292 OA
ATOM      3  C1  UNK     1      40.988  14.082  -0.495  1.00  0.00     0.169 C 
ATOM      4  C2  UNK     1      40.816  12.843  -1.371  1.00  0.00     0.121 C 
ATOM      5  C4  UNK     1      40.882  11.694   0.882  1.00  0.00     0.076 A 
ATOM      6  C5  UNK     1      41.167  11.618  -0.566  1.00  0.00     0.167 C 
ATOM      7  C6  UNK     1      40.368  12.881   1.414  1.00  0.00     0.089 A 
ATOM      8  C7  UNK     1      41.082  10.581   1.703  1.00  0.00     0.085 A 
ATOM      9  C8  UNK     1      40.021  12.943   2.764  1.00  0.00     0.074 A 
ATOM     10  C11 UNK     1      40.753  10.656   3.057  1.00  0.00     0.074 A 
ATOM     11  C12 UNK     1      40.218  11.832   3.586  1.00  0.00     0.071 A 
ENDROOT
BRANCH   3  12
ATOM     12  C3  UNK     1      40.638  15.343  -1.259  1.00  0.00    -0.028 A 
ATOM     13  C9  UNK     1      39.938  16.369  -0.626  1.00  0.00     0.012 A 
ATOM     14  C13 UNK     1      39.617  17.530  -1.329  1.00  0.00     0.037 A 
ATOM     15  C15 UNK     1      39.996  17.664  -2.664  1.00  0.00     0.065 A 
ATOM     16  C14 UNK     1      40.696  16.636  -3.298  1.00  0.00     0.037 A 
ATOM     17  C10 UNK     1      41.018  15.476  -2.594  1.00  0.00     0.012 A 
BRANCH  15  18
ATOM     18  O5  UNK     1      39.682  18.797  -3.351  1.00  0.00    -0.361 OA
ATOM     19  H12 UNK     1      40.502  19.270  -3.570  1.00  0.00     0.217 HD
ENDBRANCH  15  18
ENDBRANCH   3  12
BRANCH   8  20
ATOM     20  O3  UNK     1      41.583   9.404   1.237  1.00  0.00    -0.360 OA
ATOM     21  H10 UNK     1      41.055   8.666   1.583  1.00  0.00     0.217 HD
ENDBRANCH   8  20
BRANCH  11  22
ATOM     22  O4  UNK     1      39.892  11.897   4.906  1.00  0.00    -0.361 OA
ATOM     23  H11 UNK     1      40.612  11.504   5.429  1.00  0.00     0.217 HD
ENDBRANCH  11  22
TORSDOF 4
ENDMDL
MODEL 6
REMARK VINA RESULT:      -6.2      1.538      6.618
REMARK  4 active torsions:
REMARK  status: ('A' for Active; 'I' for Inactive)
REMARK    1  A    between atoms: O3_3  and  C7_12 
REMARK    2  A    between atoms: O4_4  and  C12_17 
REMARK    3  A    between atoms: O5_5  and  C15_20 
REMARK    4  A    between atoms: C1_6  and  C3_8 
ROOT
ATOM      1  O1  UNK     1      39.742  14.206   0.287  1.00  0.00    -0.340 OA
ATOM      2  O2  UNK     1      42.006  12.154  -2.450  1.00  0.00    -0.292 OA
ATOM      3  C1  UNK     1      40.639  14.902  -0.593  1.00  0.00     0.169 C 
ATOM      4  C2  UNK     1      40.797  14.156  -1.916  1.00  0.00     0.121 C 
ATOM      5  C4  UNK     1      40.913  12.167  -0.358  1.00  0.00     0.076 A 
ATOM      6  C5  UNK     1      41.326  12.772  -1.641  1.00  0.00     0.167 C 
ATOM      7  C6  UNK     1      40.125  12.911   0.524  1.00  0.00     0.089 A 
ATOM      8  C7  UNK     1      41.270  10.852  -0.048  1.00  0.00     0.085 A 
ATOM      9  C8  UNK     1      39.664  12.327   1.704  1.00  0.00     0.074 A 
ATOM     10  C11 UNK     1      40.823  10.280   1.144  1.00  0.00     0.074 A 
ATOM     11  C12 UNK     1      40.017  11.013   2.016  1.00  0.00     0.071 A 
ENDROOT
BRANCH   3  12
ATOM     12  C3  UNK     1      40.102  16.301  -0.815  1.00  0.00    -0.028 A 
ATOM     13  C9  UNK     1      40.320  16.944  -2.033  1.00  0.00     0.012 A 
ATOM     14  C13 UNK     1      39.825  18.232  -2.238  1.00  0.00     0.037 A 
ATOM     15  C15 UNK     1      39.113  18.876  -1.227  1.00  0.00     0.065 A 
ATOM     16  C14 UNK     1      38.895  18.230  -0.008  1.00  0.00     0.037 A 
ATOM     17  C10 UNK     1      39.389  16.942   0.196  1.00  0.00     0.012 A 
BRANCH  15  18
ATOM     18  O5  UNK     1      38.631  20.132  -1.426  1.00  0.00    -0.361 OA
ATOM     19  H12 UNK     1      38.319  20.208  -2.344  1.00  0.00     0.217 HD
ENDBRANCH  15  18
ENDBRANCH   3  12
BRANCH   8  20
ATOM     20  O3  UNK     1      42.039  10.084  -0.869  1.00  0.00    -0.360 OA
ATOM     21  H10 UNK     1      42.857   9.834  -0.408  1.00  0.00     0.217 HD
ENDBRANCH   8  20
BRANCH  11  22
ATOM     22  O4  UNK     1      39.577  10.447   3.173  1.00  0.00    -0.361 OA
ATOM     23  H11 UNK     1      39.481   9.488   3.039  1.00  0.00     0.217 HD
ENDBRANCH  11  22
TORSDOF 4
ENDMDL
MODEL 7
REMARK VINA RESULT:      -6.1      1.613      6.461
REMARK  4 active torsions:
REMARK  status: ('A' for Active; 'I' for Inactive)
REMARK    1  A    between atoms: O3_3  and  C7_12 
REMARK    2  A    between atoms: O4_4  and  C12_17 
REMARK    3  A    between atoms: O5_5  and  C15_20 
REMARK    4  A    between atoms: C1_6  and  C3_8 
ROOT
ATOM      1  O1  UNK     1      39.352  15.183  -0.359  1.00  0.00    -0.340 OA
ATOM      2  O2  UNK     1      42.529  14.517  -2.867  1.00  0.00    -0.292 OA
ATOM      3  C1  UNK     1      40.281  16.235  -0.662  1.00  0.00     0.169 C 
ATOM      4  C2  UNK     1      40.877  16.056  -2.057  1.00  0.00     0.121 C 
ATOM      5  C4  UNK     1      41.000  13.647  -1.292  1.00  0.00     0.076 A 
ATOM      6  C5  UNK     1      41.577  14.723  -2.125  1.00  0.00     0.167 C 
ATOM      7  C6  UNK     1      39.905  13.934  -0.472  1.00  0.00     0.089 A 
ATOM      8  C7  UNK     1      41.515  12.350  -1.354  1.00  0.00     0.085 A 
ATOM      9  C8  UNK     1      39.302  12.912   0.262  1.00  0.00     0.074 A 
ATOM     10  C11 UNK     1      40.921  11.336  -0.602  1.00  0.00     0.074 A 
ATOM     11  C12 UNK     1      39.813  11.615   0.200  1.00  0.00     0.071 A 
ENDROOT
BRANCH   3  12
ATOM     12  C3  UNK     1      39.558  17.561  -0.544  1.00  0.00    -0.028 A 
ATOM     13  C9  UNK     1      39.742  18.543  -1.517  1.00  0.00     0.012 A 
ATOM     14  C13 UNK     1      39.075  19.764  -1.408  1.00  0.00     0.037 A 
ATOM     15  C15 UNK     1      38.226  20.002  -0.328  1.00  0.00     0.065 A 
ATOM     16  C14 UNK     1      38.043  19.018   0.645  1.00  0.00     0.037 A 
ATOM     17  C10 UNK     1      38.709  17.798   0.536  1.00  0.00     0.012 A 
BRANCH  15  18
ATOM     18  O5  UNK     1      37.577  21.193  -0.222  1.00  0.00    -0.361 OA
ATOM     19  H12 UNK     1      38.098  21.787   0.344  1.00  0.00     0.217 HD
ENDBRANCH  15  18
ENDBRANCH   3  12
BRANCH   8  20
ATOM     20  O3  UNK     1      42.583  12.018  -2.132  1.00  0.00    -0.360 OA
ATOM     21  H10 UNK     1      42.271  11.720  -3.003  1.00  0.00     0.217 HD
ENDBRANCH   8  20
BRANCH  11  22
ATOM     22  O4  UNK     1      39.232  10.620   0.926  1.00  0.00    -0.361 OA
ATOM     23  H11 UNK     1      38.315  10.874   1.131  1.00  0.00     0.217 HD
ENDBRANCH  11  22
TORSDOF 4
ENDMDL
MODEL 8
REMARK VINA RESULT:      -5.6     10.141     13.005
REMARK  4 active torsions:
REMARK  status: ('A' for Active; 'I' for Inactive)
REMARK    1  A    between atoms: O3_3  and  C7_12 
REMARK    2  A    between atoms: O4_4  and  C12_17 
REMARK    3  A    between atoms: O5_5  and  C15_20 
REMARK    4  A    between atoms: C1_6  and  C3_8 
ROOT
ATOM      1  O1  UNK     1      48.352   9.747  -6.894  1.00  0.00    -0.340 OA
ATOM      2  O2  UNK     1      45.778   9.945 -10.082  1.00  0.00    -0.292 OA
ATOM      3  C1  UNK     1      48.009  11.011  -7.483  1.00  0.00     0.169 C 
ATOM      4  C2  UNK     1      46.603  10.975  -8.079  1.00  0.00     0.121 C 
ATOM      5  C4  UNK     1      47.405   8.717  -8.891  1.00  0.00     0.076 A 
ATOM      6  C5  UNK     1      46.540   9.892  -9.125  1.00  0.00     0.167 C 
ATOM      7  C6  UNK     1      48.247   8.703  -7.775  1.00  0.00     0.089 A 
ATOM      8  C7  UNK     1      47.352   7.617  -9.750  1.00  0.00     0.085 A 
ATOM      9  C8  UNK     1      49.012   7.569  -7.499  1.00  0.00     0.074 A 
ATOM     10  C11 UNK     1      48.136   6.494  -9.480  1.00  0.00     0.074 A 
ATOM     11  C12 UNK     1      48.960   6.467  -8.354  1.00  0.00     0.071 A 
ENDROOT
BRANCH   3  12
ATOM     12  C3  UNK     1      48.122  12.082  -6.417  1.00  0.00    -0.028 A 
ATOM     13  C9  UNK     1      47.704  11.814  -5.114  1.00  0.00     0.012 A 
ATOM     14  C13 UNK     1      47.808  12.800  -4.132  1.00  0.00     0.037 A 
ATOM     15  C15 UNK     1      48.330  14.052  -4.454  1.00  0.00     0.065 A 
ATOM     16  C14 UNK     1      48.748  14.319  -5.759  1.00  0.00     0.037 A 
ATOM     17  C10 UNK     1      48.645  13.333  -6.739  1.00  0.00     0.012 A 
BRANCH  15  18
ATOM     18  O5  UNK     1      48.432  15.014  -3.497  1.00  0.00    -0.361 OA
ATOM     19  H12 UNK     1      48.365  15.887  -3.919  1.00  0.00     0.217 HD
ENDBRANCH  15  18
ENDBRANCH   3  12
BRANCH   8  20
ATOM     20  O3  UNK     1      46.554   7.581 -10.853  1.00  0.00    -0.360 OA
ATOM     21  H10 UNK     1      45.856   6.917 -10.728  1.00  0.00     0.217 HD
ENDBRANCH   8  20
BRANCH  11  22
ATOM     22  O4  UNK     1      49.716   5.366  -8.091  1.00  0.00    -0.361 OA
ATOM     23  H11 UNK     1      50.528   5.644  -7.631  1.00  0.00     0.217 HD
ENDBRANCH  11  22
TORSDOF 4
ENDMDL
MODEL 9
REMARK VINA RESULT:      -5.6     10.155     12.998
REMARK  4 active torsions:
REMARK  status: ('A' for Active; 'I' for Inactive)
REMARK    1  A    between atoms: O3_3  and  C7_12 
REMARK    2  A    between atoms: O4_4  and  C12_17 
REMARK    3  A    between atoms: O5_5  and  C15_20 
REMARK    4  A    between atoms: C1_6  and  C3_8 
ROOT
ATOM      1  O1  UNK     1      48.364   9.727  -6.897  1.00  0.00    -0.340 OA
ATOM      2  O2  UNK     1      45.777   9.917 -10.074  1.00  0.00    -0.292 OA
ATOM      3  C1  UNK     1      48.011  10.990  -7.481  1.00  0.00     0.169 C 
ATOM      4  C2  UNK     1      46.603  10.947  -8.072  1.00  0.00     0.121 C 
ATOM      5  C4  UNK     1      47.416   8.696  -8.893  1.00  0.00     0.076 A 
ATOM      6  C5  UNK     1      46.543   9.866  -9.120  1.00  0.00     0.167 C 
ATOM      7  C6  UNK     1      48.262   8.683  -7.780  1.00  0.00     0.089 A 
ATOM      8  C7  UNK     1      47.366   7.597  -9.754  1.00  0.00     0.085 A 
ATOM      9  C8  UNK     1      49.035   7.554  -7.509  1.00  0.00     0.074 A 
ATOM     10  C11 UNK     1      48.157   6.478  -9.489  1.00  0.00     0.074 A 
ATOM     11  C12 UNK     1      48.986   6.454  -8.366  1.00  0.00     0.071 A 
ENDROOT
BRANCH   3  12
ATOM     12  C3  UNK     1      48.122  12.059  -6.413  1.00  0.00    -0.028 A 
ATOM     13  C9  UNK     1      48.586  13.331  -6.748  1.00  0.00     0.012 A 
ATOM     14  C13 UNK     1      48.688  14.316  -5.765  1.00  0.00     0.037 A 
ATOM     15  C15 UNK     1      48.327  14.028  -4.449  1.00  0.00     0.065 A 
ATOM     16  C14 UNK     1      47.863  12.754  -4.115  1.00  0.00     0.037 A 
ATOM     17  C10 UNK     1      47.760  11.771  -5.099  1.00  0.00     0.012 A 
BRANCH  15  18
ATOM     18  O5  UNK     1      48.427  14.988  -3.490  1.00  0.00    -0.361 OA
ATOM     19  H12 UNK     1      47.748  15.665  -3.649  1.00  0.00     0.217 HD
ENDBRANCH  15  18
ENDBRANCH   3  12
BRANCH   8  20
ATOM     20  O3  UNK     1      46.563   7.559 -10.853  1.00  0.00    -0.360 OA
ATOM     21  H10 UNK     1      46.210   8.446 -11.029  1.00  0.00     0.217 HD
ENDBRANCH   8  20
BRANCH  11  22
ATOM     22  O4  UNK     1      49.749   5.357  -8.109  1.00  0.00    -0.361 OA
ATOM     23  H11 UNK     1      50.459   5.604  -7.491  1.00  0.00     0.217 HD
ENDBRANCH  11  22
TORSDOF 4
ENDMDL
MODEL 10
REMARK VINA RESULT:      -5.5      9.742     12.145
REMARK  4 active torsions:
REMARK  status: ('A' for Active; 'I' for Inactive)
REMARK    1  A    between atoms: O3_3  and  C7_12 
REMARK    2  A    between atoms: O4_4  and  C12_17 
REMARK    3  A    between atoms: O5_5  and  C15_20 
REMARK    4  A    between atoms: C1_6  and  C3_8 
ROOT
ATOM      1  O1  UNK     1      46.185  11.035  -7.807  1.00  0.00    -0.340 OA
ATOM      2  O2  UNK     1      48.970   9.742 -10.528  1.00  0.00    -0.292 OA
ATOM      3  C1  UNK     1      47.579  10.991  -7.465  1.00  0.00     0.169 C 
ATOM      4  C2  UNK     1      48.453  11.207  -8.699  1.00  0.00     0.121 C 
ATOM      5  C4  UNK     1      46.752   9.639  -9.724  1.00  0.00     0.076 A 
ATOM      6  C5  UNK     1      48.143  10.138  -9.715  1.00  0.00     0.167 C 
ATOM      7  C6  UNK     1      45.845  10.134  -8.782  1.00  0.00     0.089 A 
ATOM      8  C7  UNK     1      46.336   8.717 -10.688  1.00  0.00     0.085 A 
ATOM      9  C8  UNK     1      44.510   9.731  -8.827  1.00  0.00     0.074 A 
ATOM     10  C11 UNK     1      45.005   8.302 -10.714  1.00  0.00     0.074 A 
ATOM     11  C12 UNK     1      44.092   8.811  -9.790  1.00  0.00     0.071 A 
ENDROOT
BRANCH   3  12
ATOM     12  C3  UNK     1      47.848  12.047  -6.414  1.00  0.00    -0.028 A 
ATOM     13  C9  UNK     1      47.589  11.774  -5.071  1.00  0.00     0.012 A 
ATOM     14  C13 UNK     1      47.837  12.748  -4.102  1.00  0.00     0.037 A 
ATOM     15  C15 UNK     1      48.344  13.991  -4.477  1.00  0.00     0.065 A 
ATOM     16  C14 UNK     1      48.603  14.263  -5.821  1.00  0.00     0.037 A 
ATOM     17  C10 UNK     1      48.355  13.290  -6.789  1.00  0.00     0.012 A 
BRANCH  15  18
ATOM     18  O5  UNK     1      48.586  14.941  -3.532  1.00  0.00    -0.361 OA
ATOM     19  H12 UNK     1      49.199  15.601  -3.898  1.00  0.00     0.217 HD
ENDBRANCH  15  18
ENDBRANCH   3  12
BRANCH   8  20
ATOM     20  O3  UNK     1      47.179   8.201 -11.625  1.00  0.00    -0.360 OA
ATOM     21  H10 UNK     1      46.672   7.671 -12.262  1.00  0.00     0.217 HD
ENDBRANCH   8  20
BRANCH  11  22
ATOM     22  O4  UNK     1      42.792   8.409  -9.825  1.00  0.00    -0.361 OA
ATOM     23  H11 UNK     1      42.646   7.883 -10.631  1.00  0.00     0.217 HD
ENDBRANCH  11  22
TORSDOF 4
ENDMDL
MODEL 11
REMARK VINA RESULT:      -5.5      9.739     12.119
REMARK  4 active torsions:
REMARK  status: ('A' for Active; 'I' for Inactive)
REMARK    1  A    between atoms: O3_3  and  C7_12 
REMARK    2  A    between atoms: O4_4  and  C12_17 
REMARK    3  A    between atoms: O5_5  and  C15_20 
REMARK    4  A    between atoms: C1_6  and  C3_8 
ROOT
ATOM      1  O1  UNK     1      46.184  11.033  -7.803  1.00  0.00    -0.340 OA
ATOM      2  O2  UNK     1      48.972   9.751 -10.525  1.00  0.00    -0.292 OA
ATOM      3  C1  UNK     1      47.578  10.991  -7.461  1.00  0.00     0.169 C 
ATOM      4  C2  UNK     1      48.452  11.211  -8.695  1.00  0.00     0.121 C 
ATOM      5  C4  UNK     1      46.755   9.641  -9.722  1.00  0.00     0.076 A 
ATOM      6  C5  UNK     1      48.145  10.143  -9.712  1.00  0.00     0.167 C 
ATOM      7  C6  UNK     1      45.847  10.132  -8.779  1.00  0.00     0.089 A 
ATOM      8  C7  UNK     1      46.341   8.720 -10.687  1.00  0.00     0.085 A 
ATOM      9  C8  UNK     1      44.513   9.726  -8.825  1.00  0.00     0.074 A 
ATOM     10  C11 UNK     1      45.010   8.301 -10.715  1.00  0.00     0.074 A 
ATOM     11  C12 UNK     1      44.096   8.807  -9.789  1.00  0.00     0.071 A 
ENDROOT
BRANCH   3  12
ATOM     12  C3  UNK     1      47.845  12.047  -6.408  1.00  0.00    -0.028 A 
ATOM     13  C9  UNK     1      48.352  13.291  -6.783  1.00  0.00     0.012 A 
ATOM     14  C13 UNK     1      48.598  14.263  -5.812  1.00  0.00     0.037 A 
ATOM     15  C15 UNK     1      48.336  13.991  -4.470  1.00  0.00     0.065 A 
ATOM     16  C14 UNK     1      47.829  12.746  -4.097  1.00  0.00     0.037 A 
ATOM     17  C10 UNK     1      47.583  11.774  -5.067  1.00  0.00     0.012 A 
BRANCH  15  18
ATOM     18  O5  UNK     1      48.576  14.939  -3.524  1.00  0.00    -0.361 OA
ATOM     19  H12 UNK     1      47.903  14.865  -2.826  1.00  0.00     0.217 HD
ENDBRANCH  15  18
ENDBRANCH   3  12
BRANCH   8  20
ATOM     20  O3  UNK     1      47.185   8.207 -11.625  1.00  0.00    -0.360 OA
ATOM     21  H10 UNK     1      46.948   7.282 -11.805  1.00  0.00     0.217 HD
ENDBRANCH   8  20
BRANCH  11  22
ATOM     22  O4  UNK     1      42.797   8.402  -9.825  1.00  0.00    -0.361 OA
ATOM     23  H11 UNK     1      42.402   8.683 -10.669  1.00  0.00     0.217 HD
ENDBRANCH  11  22
TORSDOF 4
ENDMDL
MODEL 12
REMARK VINA RESULT:      -5.5     10.144     12.032
REMARK  4 active torsions:
REMARK  status: ('A' for Active; 'I' for Inactive)
REMARK    1  A    between atoms: O3_3  and  C7_12 
REMARK    2  A    between atoms: O4_4  and  C12_17 
REMARK    3  A    between atoms: O5_5  and  C15_20 
REMARK    4  A    between atoms: C1_6  and  C3_8 
ROOT
ATOM      1  O1  UNK     1      46.230  11.384  -7.931  1.00  0.00    -0.340 OA
ATOM      2  O2  UNK     1      48.090   7.963  -9.220  1.00  0.00    -0.292 OA
ATOM      3  C1  UNK     1      47.381  10.871  -7.243  1.00  0.00     0.169 C 
ATOM      4  C2  UNK     1      48.305  10.124  -8.202  1.00  0.00     0.121 C 
ATOM      5  C4  UNK     1      46.098   9.215  -9.039  1.00  0.00     0.076 A 
ATOM      6  C5  UNK     1      47.544   8.989  -8.837  1.00  0.00     0.167 C 
ATOM      7  C6  UNK     1      45.527  10.411  -8.593  1.00  0.00     0.089 A 
ATOM      8  C7  UNK     1      45.318   8.266  -9.704  1.00  0.00     0.085 A 
ATOM      9  C8  UNK     1      44.179  10.673  -8.845  1.00  0.00     0.074 A 
ATOM     10  C11 UNK     1      43.966   8.524  -9.934  1.00  0.00     0.074 A 
ATOM     11  C12 UNK     1      43.399   9.726  -9.511  1.00  0.00     0.071 A 
ENDROOT
BRANCH   3  12
ATOM     12  C3  UNK     1      48.100  12.030  -6.583  1.00  0.00    -0.028 A 
ATOM     13  C9  UNK     1      49.000  12.800  -7.319  1.00  0.00     0.012 A 
ATOM     14  C13 UNK     1      49.661  13.868  -6.711  1.00  0.00     0.037 A 
ATOM     15  C15 UNK     1      49.423  14.163  -5.369  1.00  0.00     0.065 A 
ATOM     16  C14 UNK     1      48.522  13.391  -4.634  1.00  0.00     0.037 A 
ATOM     17  C10 UNK     1      47.860  12.325  -5.242  1.00  0.00     0.012 A 
BRANCH  15  18
ATOM     18  O5  UNK     1      50.069  15.204  -4.776  1.00  0.00    -0.361 OA
ATOM     19  H12 UNK     1      50.321  15.849  -5.459  1.00  0.00     0.217 HD
ENDBRANCH  15  18
ENDBRANCH   3  12
BRANCH   8  20
ATOM     20  O3  UNK     1      45.823   7.083 -10.153  1.00  0.00    -0.360 OA
ATOM     21  H10 UNK     1      45.094   6.502 -10.428  1.00  0.00     0.217 HD
ENDBRANCH   8  20
BRANCH  11  22
ATOM     22  O4  UNK     1      42.081   9.976  -9.746  1.00  0.00    -0.361 OA
ATOM     23  H11 UNK     1      41.943  10.939  -9.775  1.00  0.00     0.217 HD
ENDBRANCH  11  22
TORSDOF 4
ENDMDL
MODEL 13
REMARK VINA RESULT:      -5.5     10.144     12.072
REMARK  4 active torsions:
REMARK  status: ('A' for Active; 'I' for Inactive)
REMARK    1  A    between atoms: O3_3  and  C7_12 
REMARK    2  A    between atoms: O4_4  and  C12_17 
REMARK    3  A    between atoms: O5_5  and  C15_20 
REMARK    4  A    between atoms: C1_6  and  C3_8 
ROOT
ATOM      1  O1  UNK     1      46.230  11.384  -7.932  1.00  0.00    -0.340 OA
ATOM      2  O2  UNK     1      48.090   7.963  -9.220  1.00  0.00    -0.292 OA
ATOM      3  C1  UNK     1      47.381  10.872  -7.244  1.00  0.00     0.169 C 
ATOM      4  C2  UNK     1      48.306  10.125  -8.203  1.00  0.00     0.121 C 
ATOM      5  C4  UNK     1      46.098   9.216  -9.039  1.00  0.00     0.076 A 
ATOM      6  C5  UNK     1      47.544   8.990  -8.837  1.00  0.00     0.167 C 
ATOM      7  C6  UNK     1      45.527  10.411  -8.594  1.00  0.00     0.089 A 
ATOM      8  C7  UNK     1      45.318   8.266  -9.704  1.00  0.00     0.085 A 
ATOM      9  C8  UNK     1      44.179  10.672  -8.845  1.00  0.00     0.074 A 
ATOM     10  C11 UNK     1      43.966   8.523  -9.934  1.00  0.00     0.074 A 
ATOM     11  C12 UNK     1      43.399   9.726  -9.511  1.00  0.00     0.071 A 
ENDROOT
BRANCH   3  12
ATOM     12  C3  UNK     1      48.100  12.030  -6.584  1.00  0.00    -0.028 A 
ATOM     13  C9  UNK     1      47.861  12.324  -5.242  1.00  0.00     0.012 A 
ATOM     14  C13 UNK     1      48.523  13.391  -4.634  1.00  0.00     0.037 A 
ATOM     15  C15 UNK     1      49.423  14.163  -5.368  1.00  0.00     0.065 A 
ATOM     16  C14 UNK     1      49.661  13.868  -6.711  1.00  0.00     0.037 A 
ATOM     17  C10 UNK     1      49.000  12.801  -7.318  1.00  0.00     0.012 A 
BRANCH  15  18
ATOM     18  O5  UNK     1      50.069  15.204  -4.775  1.00  0.00    -0.361 OA
ATOM     19  H12 UNK     1      51.025  15.028  -4.784  1.00  0.00     0.217 HD
ENDBRANCH  15  18
ENDBRANCH   3  12
BRANCH   8  20
ATOM     20  O3  UNK     1      45.823   7.083 -10.153  1.00  0.00    -0.360 OA
ATOM     21  H10 UNK     1      46.714   6.950  -9.788  1.00  0.00     0.217 HD
ENDBRANCH   8  20
BRANCH  11  22
ATOM     22  O4  UNK     1      42.081   9.975  -9.745  1.00  0.00    -0.361 OA
ATOM     23  H11 UNK     1      41.611   9.128  -9.834  1.00  0.00     0.217 HD
ENDBRANCH  11  22
TORSDOF 4
ENDMDL
MODEL 14
REMARK VINA RESULT:      -5.3     10.208     11.196
REMARK  4 active torsions:
REMARK  status: ('A' for Active; 'I' for Inactive)
REMARK    1  A    between atoms: O3_3  and  C7_12 
REMARK    2  A    between atoms: O4_4  and  C12_17 
REMARK    3  A    between atoms: O5_5  and  C15_20 
REMARK    4  A    between atoms: C1_6  and  C3_8 
ROOT
ATOM      1  O1  UNK     1      46.816  11.188  -6.858  1.00  0.00    -0.340 OA
ATOM      2  O2  UNK     1      49.028  12.575 -10.022  1.00  0.00    -0.292 OA
ATOM      3  C1  UNK     1      48.242  11.021  -6.886  1.00  0.00     0.169 C 
ATOM      4  C2  UNK     1      48.911  12.152  -7.664  1.00  0.00     0.121 C 
ATOM      5  C4  UNK     1      46.972  11.726  -9.232  1.00  0.00     0.076 A 
ATOM      6  C5  UNK     1      48.373  12.167  -9.071  1.00  0.00     0.167 C 
ATOM      7  C6  UNK     1      46.265  11.282  -8.110  1.00  0.00     0.089 A 
ATOM      8  C7  UNK     1      46.347  11.792 -10.479  1.00  0.00     0.085 A 
ATOM      9  C8  UNK     1      44.919  10.936  -8.231  1.00  0.00     0.074 A 
ATOM     10  C11 UNK     1      45.006  11.424 -10.598  1.00  0.00     0.074 A 
ATOM     11  C12 UNK     1      44.292  11.002  -9.476  1.00  0.00     0.071 A 
ENDROOT
BRANCH   3  12
ATOM     12  C3  UNK     1      48.745  10.968  -5.458  1.00  0.00    -0.028 A 
ATOM     13  C9  UNK     1      49.627   9.961  -5.069  1.00  0.00     0.012 A 
ATOM     14  C13 UNK     1      50.091   9.912  -3.753  1.00  0.00     0.037 A 
ATOM     15  C15 UNK     1      49.673  10.869  -2.830  1.00  0.00     0.065 A 
ATOM     16  C14 UNK     1      48.790  11.877  -3.221  1.00  0.00     0.037 A 
ATOM     17  C10 UNK     1      48.327  11.926  -4.536  1.00  0.00     0.012 A 
BRANCH  15  18
ATOM     18  O5  UNK     1      50.125  10.822  -1.547  1.00  0.00    -0.361 OA
ATOM     19  H12 UNK     1      49.767  10.027  -1.116  1.00  0.00     0.217 HD
ENDBRANCH  15  18
ENDBRANCH   3  12
BRANCH   8  20
ATOM     20  O3  UNK     1      46.990  12.212 -11.604  1.00  0.00    -0.360 OA
ATOM     21  H10 UNK     1      46.518  11.889 -12.389  1.00  0.00     0.217 HD
ENDBRANCH   8  20
BRANCH  11  22
ATOM     22  O4  UNK     1      42.982  10.652  -9.597  1.00  0.00    -0.361 OA
ATOM     23  H11 UNK     1      42.689  10.236  -8.767  1.00  0.00     0.217 HD
ENDBRANCH  11  22
TORSDOF 4
ENDMDL
