MODEL 1
REMARK VINA RESULT:      -7.4      0.000      0.000
REMARK  4 active torsions:
REMARK  status: ('A' for Active; 'I' for Inactive)
REMARK    1  A    between atoms: O3_3  and  C7_12 
REMARK    2  A    between atoms: O4_4  and  C12_17 
REMARK    3  A    between atoms: O5_5  and  C15_20 
REMARK    4  A    between atoms: C1_6  and  C3_8 
ROOT
ATOM      1  O1  UNK     1      39.869  15.461   0.015  1.00  0.00    -0.340 OA
ATOM      2  O2  UNK     1      41.313  16.346  -3.721  1.00  0.00    -0.292 OA
ATOM      3  C1  UNK     1      40.072  14.424  -0.958  1.00  0.00     0.169 C 
ATOM      4  C2  UNK     1      41.214  14.779  -1.907  1.00  0.00     0.121 C 
ATOM      5  C4  UNK     1      40.086  17.042  -1.828  1.00  0.00     0.076 A 
ATOM      6  C5  UNK     1      40.890  16.075  -2.604  1.00  0.00     0.167 C 
ATOM      7  C6  UNK     1      39.639  16.687  -0.552  1.00  0.00     0.089 A 
ATOM      8  C7  UNK     1      39.810  18.311  -2.345  1.00  0.00     0.085 A 
ATOM      9  C8  UNK     1      38.945  17.616   0.223  1.00  0.00     0.074 A 
ATOM     10  C11 UNK     1      39.097  19.229  -1.573  1.00  0.00     0.074 A 
ATOM     11  C12 UNK     1      38.670  18.885  -0.290  1.00  0.00     0.071 A 
ENDROOT
BRANCH   3  12
ATOM     12  C3  UNK     1      40.353  13.128  -0.226  1.00  0.00    -0.028 A 
ATOM     13  C9  UNK     1      40.923  12.053  -0.907  1.00  0.00     0.012 A 
ATOM     14  C13 UNK     1      41.183  10.860  -0.232  1.00  0.00     0.037 A 
ATOM     15  C15 UNK     1      40.873  10.742   1.122  1.00  0.00     0.065 A 
ATOM     16  C14 UNK     1      40.302  11.819   1.803  1.00  0.00     0.037 A 
ATOM     17  C10 UNK     1      40.044  13.012   1.128  1.00  0.00     0.012 A 
BRANCH  15  18
ATOM     18  O5  UNK     1      41.125   9.578   1.780  1.00  0.00    -0.361 OA
ATOM     19  H12 UNK     1      40.364   8.983   1.672  1.00  0.00     0.217 HD
ENDBRANCH  15  18
ENDBRANCH   3  12
BRANCH   8  20
ATOM     20  O3  UNK     1      40.217  18.705  -3.583  1.00  0.00    -0.360 OA
ATOM     21  H10 UNK     1      40.916  18.110  -3.902  1.00  0.00     0.217 HD
ENDBRANCH   8  20
BRANCH  11  22
ATOM     22  O4  UNK     1      37.981  19.788   0.462  1.00  0.00    -0.361 OA
ATOM     23  H11 UNK     1      38.080  20.670   0.064  1.00  0.00     0.217 HD
ENDBRANCH  11  22
TORSDOF 4
ENDMDL
MODEL 2
REMARK VINA RESULT:      -7.4      2.456      7.133
REMARK  4 active torsions:
REMARK  status: ('A' for Active; 'I' for Inactive)
REMARK    1  A    between atoms: O3_3  and  C7_12 
REMARK    2  A    between atoms: O4_4  and  C12_17 
REMARK    3  A    between atoms: O5_5  and  C15_20 
REMARK    4  A    between atoms: C1_6  and  C3_8 
ROOT
ATOM      1  O1  UNK     1      40.408  17.060  -1.007  1.00  0.00    -0.340 OA
ATOM      2  O2  UNK     1      36.894  14.982  -0.610  1.00  0.00    -0.292 OA
ATOM      3  C1  UNK     1      39.147  17.698  -1.260  1.00  0.00     0.169 C 
ATOM      4  C2  UNK     1      38.040  17.080  -0.407  1.00  0.00     0.121 C 
ATOM      5  C4  UNK     1      39.202  14.944  -1.105  1.00  0.00     0.076 A 
ATOM      6  C5  UNK     1      37.940  15.610  -0.721  1.00  0.00     0.167 C 
ATOM      7  C6  UNK     1      40.370  15.705  -1.204  1.00  0.00     0.089 A 
ATOM      8  C7  UNK     1      39.237  13.564  -1.324  1.00  0.00     0.085 A 
ATOM      9  C8  UNK     1      41.584  15.078  -1.490  1.00  0.00     0.074 A 
ATOM     10  C11 UNK     1      40.450  12.946  -1.630  1.00  0.00     0.074 A 
ATOM     11  C12 UNK     1      41.622  13.700  -1.707  1.00  0.00     0.071 A 
ENDROOT
BRANCH   3  12
ATOM     12  C3  UNK     1      39.293  19.178  -0.975  1.00  0.00    -0.028 A 
ATOM     13  C9  UNK     1      38.634  19.746   0.115  1.00  0.00     0.012 A 
ATOM     14  C13 UNK     1      38.769  21.110   0.377  1.00  0.00     0.037 A 
ATOM     15  C15 UNK     1      39.561  21.904  -0.450  1.00  0.00     0.065 A 
ATOM     16  C14 UNK     1      40.219  21.335  -1.542  1.00  0.00     0.037 A 
ATOM     17  C10 UNK     1      40.085  19.972  -1.803  1.00  0.00     0.012 A 
BRANCH  15  18
ATOM     18  O5  UNK     1      39.692  23.235  -0.195  1.00  0.00    -0.361 OA
ATOM     19  H12 UNK     1      40.070  23.349   0.693  1.00  0.00     0.217 HD
ENDBRANCH  15  18
ENDBRANCH   3  12
BRANCH   8  20
ATOM     20  O3  UNK     1      38.128  12.778  -1.244  1.00  0.00    -0.360 OA
ATOM     21  H10 UNK     1      37.572  13.073  -0.505  1.00  0.00     0.217 HD
ENDBRANCH   8  20
BRANCH  11  22
ATOM     22  O4  UNK     1      42.804  13.090  -1.998  1.00  0.00    -0.361 OA
ATOM     23  H11 UNK     1      43.081  12.557  -1.233  1.00  0.00     0.217 HD
ENDBRANCH  11  22
TORSDOF 4
ENDMDL
MODEL 3
REMARK VINA RESULT:      -7.1      1.336      3.026
REMARK  4 active torsions:
REMARK  status: ('A' for Active; 'I' for Inactive)
REMARK    1  A    between atoms: O3_3  and  C7_12 
REMARK    2  A    between atoms: O4_4  and  C12_17 
REMARK    3  A    between atoms: O5_5  and  C15_20 
REMARK    4  A    between atoms: C1_6  and  C3_8 
ROOT
ATOM      1  O1  UNK     1      40.494  15.199  -2.076  1.00  0.00    -0.340 OA
ATOM      2  O2  UNK     1      38.827  18.132   0.257  1.00  0.00    -0.292 OA
ATOM      3  C1  UNK     1      40.547  15.116  -0.644  1.00  0.00     0.169 C 
ATOM      4  C2  UNK     1      39.340  15.804  -0.009  1.00  0.00     0.121 C 
ATOM      5  C4  UNK     1      39.862  17.535  -1.779  1.00  0.00     0.076 A 
ATOM      6  C5  UNK     1      39.318  17.249  -0.435  1.00  0.00     0.167 C 
ATOM      7  C6  UNK     1      40.400  16.488  -2.533  1.00  0.00     0.089 A 
ATOM      8  C7  UNK     1      39.802  18.827  -2.308  1.00  0.00     0.085 A 
ATOM      9  C8  UNK     1      40.847  16.727  -3.833  1.00  0.00     0.074 A 
ATOM     10  C11 UNK     1      40.270  19.064  -3.601  1.00  0.00     0.074 A 
ATOM     11  C12 UNK     1      40.786  18.016  -4.364  1.00  0.00     0.071 A 
ENDROOT
BRANCH   3  12
ATOM     12  C3  UNK     1      40.610  13.654  -0.251  1.00  0.00    -0.028 A 
ATOM     13  C9  UNK     1      40.149  13.250   1.002  1.00  0.00     0.012 A 
ATOM     14  C13 UNK     1      40.207  11.903   1.363  1.00  0.00     0.037 A 
ATOM     15  C15 UNK     1      40.726  10.963   0.474  1.00  0.00     0.065 A 
ATOM     16  C14 UNK     1      41.188  11.370  -0.779  1.00  0.00     0.037 A 
ATOM     17  C10 UNK     1      41.129  12.715  -1.141  1.00  0.00     0.012 A 
BRANCH  15  18
ATOM     18  O5  UNK     1      40.783   9.650   0.827  1.00  0.00    -0.361 OA
ATOM     19  H12 UNK     1      40.606   9.105   0.042  1.00  0.00     0.217 HD
ENDBRANCH  15  18
ENDBRANCH   3  12
BRANCH   8  20
ATOM     20  O3  UNK     1      39.293  19.883  -1.615  1.00  0.00    -0.360 OA
ATOM     21  H10 UNK     1      38.743  20.425  -2.205  1.00  0.00     0.217 HD
ENDBRANCH   8  20
BRANCH  11  22
ATOM     22  O4  UNK     1      41.234  18.252  -5.628  1.00  0.00    -0.361 OA
ATOM     23  H11 UNK     1      41.264  19.213  -5.778  1.00  0.00     0.217 HD
ENDBRANCH  11  22
TORSDOF 4
ENDMDL
MODEL 4
REMARK VINA RESULT:      -6.4      1.563      6.686
REMARK  4 active torsions:
REMARK  status: ('A' for Active; 'I' for Inactive)
REMARK    1  A    between atoms: O3_3  and  C7_12 
REMARK    2  A    between atoms: O4_4  and  C12_17 
REMARK    3  A    between atoms: O5_5  and  C15_20 
REMARK    4  A    between atoms: C1_6  and  C3_8 
ROOT
ATOM      1  O1  UNK     1      40.148  14.012   0.669  1.00  0.00    -0.340 OA
ATOM      2  O2  UNK     1      41.609  10.599  -1.076  1.00  0.00    -0.292 OA
ATOM      3  C1  UNK     1      40.987  14.084  -0.494  1.00  0.00     0.169 C 
ATOM      4  C2  UNK     1      40.817  12.844  -1.370  1.00  0.00     0.121 C 
ATOM      5  C4  UNK     1      40.880  11.696   0.884  1.00  0.00     0.076 A 
ATOM      6  C5  UNK     1      41.168  11.620  -0.564  1.00  0.00     0.167 C 
ATOM      7  C6  UNK     1      40.365  12.882   1.414  1.00  0.00     0.089 A 
ATOM      8  C7  UNK     1      41.080  10.583   1.705  1.00  0.00     0.085 A 
ATOM      9  C8  UNK     1      40.016  12.944   2.764  1.00  0.00     0.074 A 
ATOM     10  C11 UNK     1      40.748  10.658   3.058  1.00  0.00     0.074 A 
ATOM     11  C12 UNK     1      40.213  11.834   3.586  1.00  0.00     0.071 A 
ENDROOT
BRANCH   3  12
ATOM     12  C3  UNK     1      40.638  15.344  -1.259  1.00  0.00    -0.028 A 
ATOM     13  C9  UNK     1      41.017  15.475  -2.594  1.00  0.00     0.012 A 
ATOM     14  C13 UNK     1      40.695  16.636  -3.299  1.00  0.00     0.037 A 
ATOM     15  C15 UNK     1      39.996  17.664  -2.668  1.00  0.00     0.065 A 
ATOM     16  C14 UNK     1      39.617  17.531  -1.331  1.00  0.00     0.037 A 
ATOM     17  C10 UNK     1      39.938  16.371  -0.627  1.00  0.00     0.012 A 
BRANCH  15  18
ATOM     18  O5  UNK     1      39.682  18.796  -3.355  1.00  0.00    -0.361 OA
ATOM     19  H12 UNK     1      40.217  18.830  -4.166  1.00  0.00     0.217 HD
ENDBRANCH  15  18
ENDBRANCH   3  12
BRANCH   8  20
ATOM     20  O3  UNK     1      41.583   9.406   1.240  1.00  0.00    -0.360 OA
ATOM     21  H10 UNK     1      42.185   9.580   0.497  1.00  0.00     0.217 HD
ENDBRANCH   8  20
BRANCH  11  22
ATOM     22  O4  UNK     1      39.884  11.898   4.906  1.00  0.00    -0.361 OA
ATOM     23  H11 UNK     1      38.963  12.201   4.987  1.00  0.00     0.217 HD
ENDBRANCH  11  22
TORSDOF 4
ENDMDL
MODEL 5
REMARK VINA RESULT:      -6.3      1.511      6.684
REMARK  4 active torsions:
REMARK  status: ('A' for Active; 'I' for Inactive)
REMARK    1  A    between atoms: O3_3  and  C7_12 
REMARK    2  A    between atoms: O4_4  and  C12_17 
REMARK    3  A    between atoms: O5_5  and  C15_20 
REMARK    4  A    between atoms: C1_6  and  C3_8 
ROOT
ATOM      1  O1  UNK     1      39.674  14.190   0.197  1.00  0.00    -0.340 OA
ATOM      2  O2  UNK     1      42.160  12.298  -2.462  1.00  0.00    -0.292 OA
ATOM      3  C1  UNK     1      40.614  14.939  -0.589  1.00  0.00     0.169 C 
ATOM      4  C2  UNK     1      40.877  14.254  -1.929  1.00  0.00     0.121 C 
ATOM      5  C4  UNK     1      40.927  12.201  -0.451  1.00  0.00     0.076 A 
ATOM      6  C5  UNK     1      41.414  12.868  -1.676  1.00  0.00     0.167 C 
ATOM      7  C6  UNK     1      40.066  12.893   0.406  1.00  0.00     0.089 A 
ATOM      8  C7  UNK     1      41.288  10.880  -0.172  1.00  0.00     0.085 A 
ATOM      9  C8  UNK     1      39.538  12.251   1.525  1.00  0.00     0.074 A 
ATOM     10  C11 UNK     1      40.773  10.250   0.961  1.00  0.00     0.074 A 
ATOM     11  C12 UNK     1      39.895  10.931   1.805  1.00  0.00     0.071 A 
ENDROOT
BRANCH   3  12
ATOM     12  C3  UNK     1      40.066  16.336  -0.789  1.00  0.00    -0.028 A 
ATOM     13  C9  UNK     1      39.344  16.953   0.232  1.00  0.00     0.012 A 
ATOM     14  C13 UNK     1      38.839  18.241   0.048  1.00  0.00     0.037 A 
ATOM     15  C15 UNK     1      39.055  18.910  -1.156  1.00  0.00     0.065 A 
ATOM     16  C14 UNK     1      39.778  18.291  -2.178  1.00  0.00     0.037 A 
ATOM     17  C10 UNK     1      40.283  17.004  -1.993  1.00  0.00     0.012 A 
BRANCH  15  18
ATOM     18  O5  UNK     1      38.562  20.165  -1.336  1.00  0.00    -0.361 OA
ATOM     19  H12 UNK     1      38.863  20.730  -0.604  1.00  0.00     0.217 HD
ENDBRANCH  15  18
ENDBRANCH   3  12
BRANCH   8  20
ATOM     20  O3  UNK     1      42.127  10.163  -0.970  1.00  0.00    -0.360 OA
ATOM     21  H10 UNK     1      41.799   9.251  -1.051  1.00  0.00     0.217 HD
ENDBRANCH   8  20
BRANCH  11  22
ATOM     22  O4  UNK     1      39.389  10.308   2.905  1.00  0.00    -0.361 OA
ATOM     23  H11 UNK     1      39.179  10.978   3.578  1.00  0.00     0.217 HD
ENDBRANCH  11  22
TORSDOF 4
ENDMDL
MODEL 6
REMARK VINA RESULT:      -6.1      1.614      6.458
REMARK  4 active torsions:
REMARK  status: ('A' for Active; 'I' for Inactive)
REMARK    1  A    between atoms: O3_3  and  C7_12 
REMARK    2  A    between atoms: O4_4  and  C12_17 
REMARK    3  A    between atoms: O5_5  and  C15_20 
REMARK    4  A    between atoms: C1_6  and  C3_8 
ROOT
ATOM      1  O1  UNK     1      39.348  15.186  -0.357  1.00  0.00    -0.340 OA
ATOM      2  O2  UNK     1      42.527  14.521  -2.863  1.00  0.00    -0.292 OA
ATOM      3  C1  UNK     1      40.276  16.239  -0.660  1.00  0.00     0.169 C 
ATOM      4  C2  UNK     1      40.873  16.060  -2.054  1.00  0.00     0.121 C 
ATOM      5  C4  UNK     1      40.997  13.651  -1.289  1.00  0.00     0.076 A 
ATOM      6  C5  UNK     1      41.574  14.727  -2.122  1.00  0.00     0.167 C 
ATOM      7  C6  UNK     1      39.902  13.937  -0.470  1.00  0.00     0.089 A 
ATOM      8  C7  UNK     1      41.513  12.354  -1.351  1.00  0.00     0.085 A 
ATOM      9  C8  UNK     1      39.298  12.915   0.263  1.00  0.00     0.074 A 
ATOM     10  C11 UNK     1      40.918  11.340  -0.600  1.00  0.00     0.074 A 
ATOM     11  C12 UNK     1      39.809  11.618   0.201  1.00  0.00     0.071 A 
ENDROOT
BRANCH   3  12
ATOM     12  C3  UNK     1      39.553  17.564  -0.542  1.00  0.00    -0.028 A 
ATOM     13  C9  UNK     1      39.745  18.551  -1.509  1.00  0.00     0.012 A 
ATOM     14  C13 UNK     1      39.078  19.771  -1.400  1.00  0.00     0.037 A 
ATOM     15  C15 UNK     1      38.220  20.005  -0.327  1.00  0.00     0.065 A 
ATOM     16  C14 UNK     1      38.028  19.017   0.640  1.00  0.00     0.037 A 
ATOM     17  C10 UNK     1      38.694  17.796   0.531  1.00  0.00     0.012 A 
BRANCH  15  18
ATOM     18  O5  UNK     1      37.570  21.196  -0.221  1.00  0.00    -0.361 OA
ATOM     19  H12 UNK     1      37.409  21.547  -1.113  1.00  0.00     0.217 HD
ENDBRANCH  15  18
ENDBRANCH   3  12
BRANCH   8  20
ATOM     20  O3  UNK     1      42.581  12.023  -2.129  1.00  0.00    -0.360 OA
ATOM     21  H10 UNK     1      42.336  12.094  -3.066  1.00  0.00     0.217 HD
ENDBRANCH   8  20
BRANCH  11  22
ATOM     22  O4  UNK     1      39.228  10.623   0.926  1.00  0.00    -0.361 OA
ATOM     23  H11 UNK     1      38.757  11.017   1.681  1.00  0.00     0.217 HD
ENDBRANCH  11  22
TORSDOF 4
ENDMDL
MODEL 7
REMARK VINA RESULT:      -6.0     22.389     26.256
REMARK  4 active torsions:
REMARK  status: ('A' for Active; 'I' for Inactive)
REMARK    1  A    between atoms: O3_3  and  C7_12 
REMARK    2  A    between atoms: O4_4  and  C12_17 
REMARK    3  A    between atoms: O5_5  and  C15_20 
REMARK    4  A    between atoms: C1_6  and  C3_8 
ROOT
ATOM      1  O1  UNK     1      38.968  -9.875   4.841  1.00  0.00    -0.340 OA
ATOM      2  O2  UNK     1      36.403 -10.686   1.744  1.00  0.00    -0.292 OA
ATOM      3  C1  UNK     1      38.332 -11.158   4.731  1.00  0.00     0.169 C 
ATOM      4  C2  UNK     1      38.058 -11.512   3.271  1.00  0.00     0.121 C 
ATOM      5  C4  UNK     1      37.345  -9.086   3.201  1.00  0.00     0.076 A 
ATOM      6  C5  UNK     1      37.175 -10.452   2.665  1.00  0.00     0.167 C 
ATOM      7  C6  UNK     1      38.249  -8.871   4.245  1.00  0.00     0.089 A 
ATOM      8  C7  UNK     1      36.643  -8.014   2.644  1.00  0.00     0.085 A 
ATOM      9  C8  UNK     1      38.478  -7.576   4.710  1.00  0.00     0.074 A 
ATOM     10  C11 UNK     1      36.860  -6.723   3.127  1.00  0.00     0.074 A 
ATOM     11  C12 UNK     1      37.780  -6.503   4.154  1.00  0.00     0.071 A 
ENDROOT
BRANCH   3  12
ATOM     12  C3  UNK     1      39.225 -12.192   5.385  1.00  0.00    -0.028 A 
ATOM     13  C9  UNK     1      39.535 -12.086   6.741  1.00  0.00     0.012 A 
ATOM     14  C13 UNK     1      40.357 -13.040   7.343  1.00  0.00     0.037 A 
ATOM     15  C15 UNK     1      40.869 -14.096   6.591  1.00  0.00     0.065 A 
ATOM     16  C14 UNK     1      40.558 -14.200   5.234  1.00  0.00     0.037 A 
ATOM     17  C10 UNK     1      39.735 -13.248   4.632  1.00  0.00     0.012 A 
BRANCH  15  18
ATOM     18  O5  UNK     1      41.671 -15.025   7.178  1.00  0.00    -0.361 OA
ATOM     19  H12 UNK     1      41.700 -15.817   6.616  1.00  0.00     0.217 HD
ENDBRANCH  15  18
ENDBRANCH   3  12
BRANCH   8  20
ATOM     20  O3  UNK     1      35.747  -8.168   1.630  1.00  0.00    -0.360 OA
ATOM     21  H10 UNK     1      35.849  -9.051   1.237  1.00  0.00     0.217 HD
ENDBRANCH   8  20
BRANCH  11  22
ATOM     22  O4  UNK     1      37.994  -5.240   4.616  1.00  0.00    -0.361 OA
ATOM     23  H11 UNK     1      37.644  -5.172   5.521  1.00  0.00     0.217 HD
ENDBRANCH  11  22
TORSDOF 4
ENDMDL
MODEL 8
REMARK VINA RESULT:      -6.0     15.977     17.857
REMARK  4 active torsions:
REMARK  status: ('A' for Active; 'I' for Inactive)
REMARK    1  A    between atoms: O3_3  and  C7_12 
REMARK    2  A    between atoms: O4_4  and  C12_17 
REMARK    3  A    between atoms: O5_5  and  C15_20 
REMARK    4  A    between atoms: C1_6  and  C3_8 
ROOT
ATOM      1  O1  UNK     1      44.207   1.754   7.590  1.00  0.00    -0.340 OA
ATOM      2  O2  UNK     1      45.695   0.860  11.306  1.00  0.00    -0.292 OA
ATOM      3  C1  UNK     1      43.524   0.830   8.451  1.00  0.00     0.169 C 
ATOM      4  C2  UNK     1      43.762   1.172   9.921  1.00  0.00     0.121 C 
ATOM      5  C4  UNK     1      46.123   1.509   9.078  1.00  0.00     0.076 A 
ATOM      6  C5  UNK     1      45.242   1.131  10.202  1.00  0.00     0.167 C 
ATOM      7  C6  UNK     1      45.553   1.821   7.840  1.00  0.00     0.089 A 
ATOM      8  C7  UNK     1      47.506   1.596   9.259  1.00  0.00     0.085 A 
ATOM      9  C8  UNK     1      46.365   2.254   6.791  1.00  0.00     0.074 A 
ATOM     10  C11 UNK     1      48.315   2.009   8.201  1.00  0.00     0.074 A 
ATOM     11  C12 UNK     1      47.746   2.344   6.971  1.00  0.00     0.071 A 
ENDROOT
BRANCH   3  12
ATOM     12  C3  UNK     1      42.047   0.865   8.116  1.00  0.00    -0.028 A 
ATOM     13  C9  UNK     1      41.257  -0.262   8.336  1.00  0.00     0.012 A 
ATOM     14  C13 UNK     1      39.896  -0.230   8.027  1.00  0.00     0.037 A 
ATOM     15  C15 UNK     1      39.328   0.928   7.499  1.00  0.00     0.065 A 
ATOM     16  C14 UNK     1      40.120   2.056   7.278  1.00  0.00     0.037 A 
ATOM     17  C10 UNK     1      41.480   2.024   7.588  1.00  0.00     0.012 A 
BRANCH  15  18
ATOM     18  O5  UNK     1      38.001   0.960   7.197  1.00  0.00    -0.361 OA
ATOM     19  H12 UNK     1      37.531   0.338   7.778  1.00  0.00     0.217 HD
ENDBRANCH  15  18
ENDBRANCH   3  12
BRANCH   8  20
ATOM     20  O3  UNK     1      48.113   1.299  10.442  1.00  0.00    -0.360 OA
ATOM     21  H10 UNK     1      48.875   0.718  10.279  1.00  0.00     0.217 HD
ENDBRANCH   8  20
BRANCH  11  22
ATOM     22  O4  UNK     1      48.540   2.754   5.944  1.00  0.00    -0.361 OA
ATOM     23  H11 UNK     1      48.987   3.579   6.201  1.00  0.00     0.217 HD
ENDBRANCH  11  22
TORSDOF 4
ENDMDL
MODEL 9
REMARK VINA RESULT:      -6.0     16.189     18.463
REMARK  4 active torsions:
REMARK  status: ('A' for Active; 'I' for Inactive)
REMARK    1  A    between atoms: O3_3  and  C7_12 
REMARK    2  A    between atoms: O4_4  and  C12_17 
REMARK    3  A    between atoms: O5_5  and  C15_20 
REMARK    4  A    between atoms: C1_6  and  C3_8 
ROOT
ATOM      1  O1  UNK     1      44.038   0.165   9.102  1.00  0.00    -0.340 OA
ATOM      2  O2  UNK     1      40.998   2.224   7.273  1.00  0.00    -0.292 OA
ATOM      3  C1  UNK     1      44.296   0.988   7.954  1.00  0.00     0.169 C 
ATOM      4  C2  UNK     1      43.316   2.157   7.886  1.00  0.00     0.121 C 
ATOM      5  C4  UNK     1      41.676   0.340   8.524  1.00  0.00     0.076 A 
ATOM      6  C5  UNK     1      41.910   1.618   7.821  1.00  0.00     0.167 C 
ATOM      7  C6  UNK     1      42.751  -0.304   9.144  1.00  0.00     0.089 A 
ATOM      8  C7  UNK     1      40.389  -0.198   8.606  1.00  0.00     0.085 A 
ATOM      9  C8  UNK     1      42.532  -1.471   9.877  1.00  0.00     0.074 A 
ATOM     10  C11 UNK     1      40.180  -1.377   9.322  1.00  0.00     0.074 A 
ATOM     11  C12 UNK     1      41.247  -2.009   9.961  1.00  0.00     0.071 A 
ENDROOT
BRANCH   3  12
ATOM     12  C3  UNK     1      45.727   1.479   8.028  1.00  0.00    -0.028 A 
ATOM     13  C9  UNK     1      46.559   1.045   9.060  1.00  0.00     0.012 A 
ATOM     14  C13 UNK     1      47.878   1.497   9.128  1.00  0.00     0.037 A 
ATOM     15  C15 UNK     1      48.363   2.382   8.166  1.00  0.00     0.065 A 
ATOM     16  C14 UNK     1      47.529   2.816   7.134  1.00  0.00     0.037 A 
ATOM     17  C10 UNK     1      46.211   2.363   7.066  1.00  0.00     0.012 A 
BRANCH  15  18
ATOM     18  O5  UNK     1      49.648   2.823   8.233  1.00  0.00    -0.361 OA
ATOM     19  H12 UNK     1      50.036   2.800   7.342  1.00  0.00     0.217 HD
ENDBRANCH  15  18
ENDBRANCH   3  12
BRANCH   8  20
ATOM     20  O3  UNK     1      39.309   0.385   8.016  1.00  0.00    -0.360 OA
ATOM     21  H10 UNK     1      39.555   0.711   7.135  1.00  0.00     0.217 HD
ENDBRANCH   8  20
BRANCH  11  22
ATOM     22  O4  UNK     1      41.036  -3.155  10.666  1.00  0.00    -0.361 OA
ATOM     23  H11 UNK     1      41.864  -3.665  10.695  1.00  0.00     0.217 HD
ENDBRANCH  11  22
TORSDOF 4
ENDMDL
MODEL 10
REMARK VINA RESULT:      -6.0     12.926     15.689
REMARK  4 active torsions:
REMARK  status: ('A' for Active; 'I' for Inactive)
REMARK    1  A    between atoms: O3_3  and  C7_12 
REMARK    2  A    between atoms: O4_4  and  C12_17 
REMARK    3  A    between atoms: O5_5  and  C15_20 
REMARK    4  A    between atoms: C1_6  and  C3_8 
ROOT
ATOM      1  O1  UNK     1      39.032  22.182  11.131  1.00  0.00    -0.340 OA
ATOM      2  O2  UNK     1      37.795  19.655  14.116  1.00  0.00    -0.292 OA
ATOM      3  C1  UNK     1      37.641  22.072  11.469  1.00  0.00     0.169 C 
ATOM      4  C2  UNK     1      37.462  21.722  12.945  1.00  0.00     0.121 C 
ATOM      5  C4  UNK     1      39.365  20.140  12.421  1.00  0.00     0.076 A 
ATOM      6  C5  UNK     1      38.160  20.418  13.230  1.00  0.00     0.167 C 
ATOM      7  C6  UNK     1      39.745  21.051  11.431  1.00  0.00     0.089 A 
ATOM      8  C7  UNK     1      40.140  19.005  12.671  1.00  0.00     0.085 A 
ATOM      9  C8  UNK     1      40.923  20.843  10.712  1.00  0.00     0.074 A 
ATOM     10  C11 UNK     1      41.305  18.791  11.934  1.00  0.00     0.074 A 
ATOM     11  C12 UNK     1      41.699  19.710  10.960  1.00  0.00     0.071 A 
ENDROOT
BRANCH   3  12
ATOM     12  C3  UNK     1      36.961  23.383  11.132  1.00  0.00    -0.028 A 
ATOM     13  C9  UNK     1      37.358  24.557  11.771  1.00  0.00     0.012 A 
ATOM     14  C13 UNK     1      36.732  25.765  11.460  1.00  0.00     0.037 A 
ATOM     15  C15 UNK     1      35.710  25.797  10.513  1.00  0.00     0.065 A 
ATOM     16  C14 UNK     1      35.312  24.621   9.875  1.00  0.00     0.037 A 
ATOM     17  C10 UNK     1      35.939  23.414  10.185  1.00  0.00     0.012 A 
BRANCH  15  18
ATOM     18  O5  UNK     1      35.098  26.975  10.211  1.00  0.00    -0.361 OA
ATOM     19  H12 UNK     1      35.335  27.635  10.884  1.00  0.00     0.217 HD
ENDBRANCH  15  18
ENDBRANCH   3  12
BRANCH   8  20
ATOM     20  O3  UNK     1      39.813  18.084  13.620  1.00  0.00    -0.360 OA
ATOM     21  H10 UNK     1      39.725  18.523  14.482  1.00  0.00     0.217 HD
ENDBRANCH   8  20
BRANCH  11  22
ATOM     22  O4  UNK     1      42.842  19.500  10.250  1.00  0.00    -0.361 OA
ATOM     23  H11 UNK     1      42.808  18.611   9.854  1.00  0.00     0.217 HD
ENDBRANCH  11  22
TORSDOF 4
ENDMDL
MODEL 11
REMARK VINA RESULT:      -5.9     21.905     24.083
REMARK  4 active torsions:
REMARK  status: ('A' for Active; 'I' for Inactive)
REMARK    1  A    between atoms: O3_3  and  C7_12 
REMARK    2  A    between atoms: O4_4  and  C12_17 
REMARK    3  A    between atoms: O5_5  and  C15_20 
REMARK    4  A    between atoms: C1_6  and  C3_8 
ROOT
ATOM      1  O1  UNK     1      39.179  -8.511  -5.049  1.00  0.00    -0.340 OA
ATOM      2  O2  UNK     1      36.679  -5.331  -4.366  1.00  0.00    -0.292 OA
ATOM      3  C1  UNK     1      39.336  -7.284  -5.778  1.00  0.00     0.169 C 
ATOM      4  C2  UNK     1      38.880  -6.088  -4.945  1.00  0.00     0.121 C 
ATOM      5  C4  UNK     1      36.989  -7.671  -4.380  1.00  0.00     0.076 A 
ATOM      6  C5  UNK     1      37.433  -6.274  -4.567  1.00  0.00     0.167 C 
ATOM      7  C6  UNK     1      37.895  -8.710  -4.611  1.00  0.00     0.089 A 
ATOM      8  C7  UNK     1      35.694  -7.949  -3.937  1.00  0.00     0.085 A 
ATOM      9  C8  UNK     1      37.515 -10.030  -4.365  1.00  0.00     0.074 A 
ATOM     10  C11 UNK     1      35.312  -9.273  -3.713  1.00  0.00     0.074 A 
ATOM     11  C12 UNK     1      36.221 -10.311  -3.921  1.00  0.00     0.071 A 
ENDROOT
BRANCH   3  12
ATOM     12  C3  UNK     1      40.790  -7.148  -6.178  1.00  0.00    -0.028 A 
ATOM     13  C9  UNK     1      41.673  -6.438  -5.364  1.00  0.00     0.012 A 
ATOM     14  C13 UNK     1      43.013  -6.313  -5.732  1.00  0.00     0.037 A 
ATOM     15  C15 UNK     1      43.469  -6.897  -6.914  1.00  0.00     0.065 A 
ATOM     16  C14 UNK     1      42.585  -7.606  -7.728  1.00  0.00     0.037 A 
ATOM     17  C10 UNK     1      41.246  -7.732  -7.359  1.00  0.00     0.012 A 
BRANCH  15  18
ATOM     18  O5  UNK     1      44.776  -6.774  -7.273  1.00  0.00    -0.361 OA
ATOM     19  H12 UNK     1      45.157  -7.662  -7.384  1.00  0.00     0.217 HD
ENDBRANCH  15  18
ENDBRANCH   3  12
BRANCH   8  20
ATOM     20  O3  UNK     1      34.771  -6.976  -3.702  1.00  0.00    -0.360 OA
ATOM     21  H10 UNK     1      34.685  -6.412  -4.489  1.00  0.00     0.217 HD
ENDBRANCH   8  20
BRANCH  11  22
ATOM     22  O4  UNK     1      35.846 -11.599  -3.692  1.00  0.00    -0.361 OA
ATOM     23  H11 UNK     1      35.341 -11.921  -4.459  1.00  0.00     0.217 HD
ENDBRANCH  11  22
TORSDOF 4
ENDMDL
MODEL 12
REMARK VINA RESULT:      -5.9     15.937     18.114
REMARK  4 active torsions:
REMARK  status: ('A' for Active; 'I' for Inactive)
REMARK    1  A    between atoms: O3_3  and  C7_12 
REMARK    2  A    between atoms: O4_4  and  C12_17 
REMARK    3  A    between atoms: O5_5  and  C15_20 
REMARK    4  A    between atoms: C1_6  and  C3_8 
ROOT
ATOM      1  O1  UNK     1      42.144  -0.169   8.572  1.00  0.00    -0.340 OA
ATOM      2  O2  UNK     1      39.355   2.453   7.098  1.00  0.00    -0.292 OA
ATOM      3  C1  UNK     1      42.526   0.872   7.659  1.00  0.00     0.169 C 
ATOM      4  C2  UNK     1      41.618   2.091   7.807  1.00  0.00     0.121 C 
ATOM      5  C4  UNK     1      39.841   0.294   7.920  1.00  0.00     0.076 A 
ATOM      6  C5  UNK     1      40.193   1.679   7.542  1.00  0.00     0.167 C 
ATOM      7  C6  UNK     1      40.833  -0.545   8.435  1.00  0.00     0.089 A 
ATOM      8  C7  UNK     1      38.524  -0.158   7.805  1.00  0.00     0.085 A 
ATOM      9  C8  UNK     1      40.500  -1.829   8.868  1.00  0.00     0.074 A 
ATOM     10  C11 UNK     1      38.201  -1.451   8.220  1.00  0.00     0.074 A 
ATOM     11  C12 UNK     1      39.185  -2.283   8.756  1.00  0.00     0.071 A 
ENDROOT
BRANCH   3  12
ATOM     12  C3  UNK     1      43.973   1.233   7.923  1.00  0.00    -0.028 A 
ATOM     13  C9  UNK     1      44.607   0.769   9.075  1.00  0.00     0.012 A 
ATOM     14  C13 UNK     1      45.941   1.102   9.318  1.00  0.00     0.037 A 
ATOM     15  C15 UNK     1      46.637   1.898   8.410  1.00  0.00     0.065 A 
ATOM     16  C14 UNK     1      46.001   2.362   7.258  1.00  0.00     0.037 A 
ATOM     17  C10 UNK     1      44.669   2.029   7.015  1.00  0.00     0.012 A 
BRANCH  15  18
ATOM     18  O5  UNK     1      47.938   2.223   8.647  1.00  0.00    -0.361 OA
ATOM     19  H12 UNK     1      48.506   1.696   8.061  1.00  0.00     0.217 HD
ENDBRANCH  15  18
ENDBRANCH   3  12
BRANCH   8  20
ATOM     20  O3  UNK     1      37.521   0.616   7.306  1.00  0.00    -0.360 OA
ATOM     21  H10 UNK     1      37.419   1.411   7.855  1.00  0.00     0.217 HD
ENDBRANCH   8  20
BRANCH  11  22
ATOM     22  O4  UNK     1      38.863  -3.540   9.167  1.00  0.00    -0.361 OA
ATOM     23  H11 UNK     1      39.499  -3.822   9.847  1.00  0.00     0.217 HD
ENDBRANCH  11  22
TORSDOF 4
ENDMDL
MODEL 13
REMARK VINA RESULT:      -5.8     16.083     18.307
REMARK  4 active torsions:
REMARK  status: ('A' for Active; 'I' for Inactive)
REMARK    1  A    between atoms: O3_3  and  C7_12 
REMARK    2  A    between atoms: O4_4  and  C12_17 
REMARK    3  A    between atoms: O5_5  and  C15_20 
REMARK    4  A    between atoms: C1_6  and  C3_8 
ROOT
ATOM      1  O1  UNK     1      42.558   0.944   7.965  1.00  0.00    -0.340 OA
ATOM      2  O2  UNK     1      41.011  -1.734  10.660  1.00  0.00    -0.292 OA
ATOM      3  C1  UNK     1      43.238   0.670   9.199  1.00  0.00     0.169 C 
ATOM      4  C2  UNK     1      42.966  -0.757   9.670  1.00  0.00     0.121 C 
ATOM      5  C4  UNK     1      40.617  -0.154   8.951  1.00  0.00     0.076 A 
ATOM      6  C5  UNK     1      41.482  -0.940   9.855  1.00  0.00     0.167 C 
ATOM      7  C6  UNK     1      41.207   0.729   8.041  1.00  0.00     0.089 A 
ATOM      8  C7  UNK     1      39.230  -0.320   8.975  1.00  0.00     0.085 A 
ATOM      9  C8  UNK     1      40.409   1.421   7.129  1.00  0.00     0.074 A 
ATOM     10  C11 UNK     1      38.435   0.390   8.075  1.00  0.00     0.074 A 
ATOM     11  C12 UNK     1      39.023   1.255   7.150  1.00  0.00     0.071 A 
ENDROOT
BRANCH   3  12
ATOM     12  C3  UNK     1      44.721   0.903   8.991  1.00  0.00    -0.028 A 
ATOM     13  C9  UNK     1      45.163   1.619   7.880  1.00  0.00     0.012 A 
ATOM     14  C13 UNK     1      46.529   1.834   7.688  1.00  0.00     0.037 A 
ATOM     15  C15 UNK     1      47.449   1.333   8.608  1.00  0.00     0.065 A 
ATOM     16  C14 UNK     1      47.005   0.615   9.720  1.00  0.00     0.037 A 
ATOM     17  C10 UNK     1      45.640   0.402   9.911  1.00  0.00     0.012 A 
BRANCH  15  18
ATOM     18  O5  UNK     1      48.781   1.542   8.421  1.00  0.00    -0.361 OA
ATOM     19  H12 UNK     1      49.213   1.619   9.288  1.00  0.00     0.217 HD
ENDBRANCH  15  18
ENDBRANCH   3  12
BRANCH   8  20
ATOM     20  O3  UNK     1      38.605  -1.162   9.844  1.00  0.00    -0.360 OA
ATOM     21  H10 UNK     1      38.510  -0.728  10.708  1.00  0.00     0.217 HD
ENDBRANCH   8  20
BRANCH  11  22
ATOM     22  O4  UNK     1      38.243   1.939   6.269  1.00  0.00    -0.361 OA
ATOM     23  H11 UNK     1      38.729   2.725   5.962  1.00  0.00     0.217 HD
ENDBRANCH  11  22
TORSDOF 4
ENDMDL
MODEL 14
REMARK VINA RESULT:      -5.8     15.243     17.848
REMARK  4 active torsions:
REMARK  status: ('A' for Active; 'I' for Inactive)
REMARK    1  A    between atoms: O3_3  and  C7_12 
REMARK    2  A    between atoms: O4_4  and  C12_17 
REMARK    3  A    between atoms: O5_5  and  C15_20 
REMARK    4  A    between atoms: C1_6  and  C3_8 
ROOT
ATOM      1  O1  UNK     1      41.989   1.228   9.420  1.00  0.00    -0.340 OA
ATOM      2  O2  UNK     1      38.946   1.395   6.674  1.00  0.00    -0.292 OA
ATOM      3  C1  UNK     1      41.929   2.290   8.455  1.00  0.00     0.169 C 
ATOM      4  C2  UNK     1      40.484   2.598   8.068  1.00  0.00     0.121 C 
ATOM      5  C4  UNK     1      40.340   0.072   8.046  1.00  0.00     0.076 A 
ATOM      6  C5  UNK     1      39.852   1.354   7.498  1.00  0.00     0.167 C 
ATOM      7  C6  UNK     1      41.367   0.083   8.994  1.00  0.00     0.089 A 
ATOM      8  C7  UNK     1      39.754  -1.135   7.655  1.00  0.00     0.085 A 
ATOM      9  C8  UNK     1      41.786  -1.113   9.577  1.00  0.00     0.074 A 
ATOM     10  C11 UNK     1      40.192  -2.330   8.226  1.00  0.00     0.074 A 
ATOM     11  C12 UNK     1      41.201  -2.319   9.190  1.00  0.00     0.071 A 
ENDROOT
BRANCH   3  12
ATOM     12  C3  UNK     1      42.608   3.510   9.043  1.00  0.00    -0.028 A 
ATOM     13  C9  UNK     1      41.891   4.376   9.868  1.00  0.00     0.012 A 
ATOM     14  C13 UNK     1      42.517   5.499  10.409  1.00  0.00     0.037 A 
ATOM     15  C15 UNK     1      43.858   5.756  10.125  1.00  0.00     0.065 A 
ATOM     16  C14 UNK     1      44.574   4.888   9.299  1.00  0.00     0.037 A 
ATOM     17  C10 UNK     1      43.949   3.765   8.759  1.00  0.00     0.012 A 
BRANCH  15  18
ATOM     18  O5  UNK     1      44.469   6.852  10.652  1.00  0.00    -0.361 OA
ATOM     19  H12 UNK     1      44.739   7.441   9.928  1.00  0.00     0.217 HD
ENDBRANCH  15  18
ENDBRANCH   3  12
BRANCH   8  20
ATOM     20  O3  UNK     1      38.754  -1.203   6.732  1.00  0.00    -0.360 OA
ATOM     21  H10 UNK     1      38.870  -0.498   6.074  1.00  0.00     0.217 HD
ENDBRANCH   8  20
BRANCH  11  22
ATOM     22  O4  UNK     1      41.619  -3.488   9.750  1.00  0.00    -0.361 OA
ATOM     23  H11 UNK     1      42.271  -3.905   9.161  1.00  0.00     0.217 HD
ENDBRANCH  11  22
TORSDOF 4
ENDMDL
MODEL 15
REMARK VINA RESULT:      -5.8     12.806     15.405
REMARK  4 active torsions:
REMARK  status: ('A' for Active; 'I' for Inactive)
REMARK    1  A    between atoms: O3_3  and  C7_12 
REMARK    2  A    between atoms: O4_4  and  C12_17 
REMARK    3  A    between atoms: O5_5  and  C15_20 
REMARK    4  A    between atoms: C1_6  and  C3_8 
ROOT
ATOM      1  O1  UNK     1      36.537  23.396  10.621  1.00  0.00    -0.340 OA
ATOM      2  O2  UNK     1      34.515  23.075  14.175  1.00  0.00    -0.292 OA
ATOM      3  C1  UNK     1      37.207  22.943  11.808  1.00  0.00     0.169 C 
ATOM      4  C2  UNK     1      36.238  22.221  12.742  1.00  0.00     0.121 C 
ATOM      5  C4  UNK     1      34.744  24.156  12.089  1.00  0.00     0.076 A 
ATOM      6  C5  UNK     1      35.121  23.161  13.115  1.00  0.00     0.167 C 
ATOM      7  C6  UNK     1      35.461  24.202  10.890  1.00  0.00     0.089 A 
ATOM      8  C7  UNK     1      33.659  25.011  12.296  1.00  0.00     0.085 A 
ATOM      9  C8  UNK     1      35.070  25.083   9.881  1.00  0.00     0.074 A 
ATOM     10  C11 UNK     1      33.286  25.905  11.292  1.00  0.00     0.074 A 
ATOM     11  C12 UNK     1      33.985  25.937  10.085  1.00  0.00     0.071 A 
ENDROOT
BRANCH   3  12
ATOM     12  C3  UNK     1      38.348  22.036  11.397  1.00  0.00    -0.028 A 
ATOM     13  C9  UNK     1      39.321  21.677  12.329  1.00  0.00     0.012 A 
ATOM     14  C13 UNK     1      40.372  20.840  11.951  1.00  0.00     0.037 A 
ATOM     15  C15 UNK     1      40.449  20.365  10.642  1.00  0.00     0.065 A 
ATOM     16  C14 UNK     1      39.475  20.726   9.710  1.00  0.00     0.037 A 
ATOM     17  C10 UNK     1      38.424  21.561  10.089  1.00  0.00     0.012 A 
BRANCH  15  18
ATOM     18  O5  UNK     1      41.475  19.550  10.273  1.00  0.00    -0.361 OA
ATOM     19  H12 UNK     1      41.685  18.953  11.012  1.00  0.00     0.217 HD
ENDBRANCH  15  18
ENDBRANCH   3  12
BRANCH   8  20
ATOM     20  O3  UNK     1      32.931  25.011  13.447  1.00  0.00    -0.360 OA
ATOM     21  H10 UNK     1      33.016  24.149  13.886  1.00  0.00     0.217 HD
ENDBRANCH   8  20
BRANCH  11  22
ATOM     22  O4  UNK     1      33.611  26.806   9.105  1.00  0.00    -0.361 OA
ATOM     23  H11 UNK     1      34.133  26.623   8.305  1.00  0.00     0.217 HD
ENDBRANCH  11  22
TORSDOF 4
ENDMDL
MODEL 16
REMARK VINA RESULT:      -5.8     16.174     19.299
REMARK  4 active torsions:
REMARK  status: ('A' for Active; 'I' for Inactive)
REMARK    1  A    between atoms: O3_3  and  C7_12 
REMARK    2  A    between atoms: O4_4  and  C12_17 
REMARK    3  A    between atoms: O5_5  and  C15_20 
REMARK    4  A    between atoms: C1_6  and  C3_8 
ROOT
ATOM      1  O1  UNK     1      41.440  -0.269   8.000  1.00  0.00    -0.340 OA
ATOM      2  O2  UNK     1      41.611  -2.615  11.360  1.00  0.00    -0.292 OA
ATOM      3  C1  UNK     1      42.360   0.034   9.060  1.00  0.00     0.169 C 
ATOM      4  C2  UNK     1      42.790  -1.235   9.792  1.00  0.00     0.121 C 
ATOM      5  C4  UNK     1      40.324  -1.754   9.579  1.00  0.00     0.076 A 
ATOM      6  C5  UNK     1      41.570  -1.917  10.355  1.00  0.00     0.167 C 
ATOM      7  C6  UNK     1      40.335  -0.956   8.431  1.00  0.00     0.089 A 
ATOM      8  C7  UNK     1      39.158  -2.422   9.962  1.00  0.00     0.085 A 
ATOM      9  C8  UNK     1      39.187  -0.854   7.645  1.00  0.00     0.074 A 
ATOM     10  C11 UNK     1      38.006  -2.300   9.183  1.00  0.00     0.074 A 
ATOM     11  C12 UNK     1      38.022  -1.522   8.024  1.00  0.00     0.071 A 
ENDROOT
BRANCH   3  12
ATOM     12  C3  UNK     1      43.553   0.754   8.468  1.00  0.00    -0.028 A 
ATOM     13  C9  UNK     1      44.789   0.699   9.112  1.00  0.00     0.012 A 
ATOM     14  C13 UNK     1      45.889   1.362   8.566  1.00  0.00     0.037 A 
ATOM     15  C15 UNK     1      45.752   2.080   7.379  1.00  0.00     0.065 A 
ATOM     16  C14 UNK     1      44.514   2.135   6.736  1.00  0.00     0.037 A 
ATOM     17  C10 UNK     1      43.416   1.471   7.281  1.00  0.00     0.012 A 
BRANCH  15  18
ATOM     18  O5  UNK     1      46.824   2.727   6.847  1.00  0.00    -0.361 OA
ATOM     19  H12 UNK     1      46.546   3.184   6.035  1.00  0.00     0.217 HD
ENDBRANCH  15  18
ENDBRANCH   3  12
BRANCH   8  20
ATOM     20  O3  UNK     1      39.091  -3.208  11.072  1.00  0.00    -0.360 OA
ATOM     21  H10 UNK     1      38.847  -4.113  10.816  1.00  0.00     0.217 HD
ENDBRANCH   8  20
BRANCH  11  22
ATOM     22  O4  UNK     1      36.898  -1.413   7.264  1.00  0.00    -0.361 OA
ATOM     23  H11 UNK     1      37.128  -0.986   6.420  1.00  0.00     0.217 HD
ENDBRANCH  11  22
TORSDOF 4
ENDMDL
MODEL 17
REMARK VINA RESULT:      -5.7     20.549     22.151
REMARK  4 active torsions:
REMARK  status: ('A' for Active; 'I' for Inactive)
REMARK    1  A    between atoms: O3_3  and  C7_12 
REMARK    2  A    between atoms: O4_4  and  C12_17 
REMARK    3  A    between atoms: O5_5  and  C15_20 
REMARK    4  A    between atoms: C1_6  and  C3_8 
ROOT
ATOM      1  O1  UNK     1      31.608  -1.822  -9.185  1.00  0.00    -0.340 OA
ATOM      2  O2  UNK     1      28.476  -3.749 -11.001  1.00  0.00    -0.292 OA
ATOM      3  C1  UNK     1      31.844  -2.895 -10.109  1.00  0.00     0.169 C 
ATOM      4  C2  UNK     1      30.738  -2.967 -11.160  1.00  0.00     0.121 C 
ATOM      5  C4  UNK     1      29.287  -2.566  -9.126  1.00  0.00     0.076 A 
ATOM      6  C5  UNK     1      29.414  -3.171 -10.468  1.00  0.00     0.167 C 
ATOM      7  C6  UNK     1      30.386  -1.906  -8.570  1.00  0.00     0.089 A 
ATOM      8  C7  UNK     1      28.071  -2.615  -8.440  1.00  0.00     0.085 A 
ATOM      9  C8  UNK     1      30.259  -1.263  -7.338  1.00  0.00     0.074 A 
ATOM     10  C11 UNK     1      27.956  -1.989  -7.198  1.00  0.00     0.074 A 
ATOM     11  C12 UNK     1      29.045  -1.309  -6.650  1.00  0.00     0.071 A 
ENDROOT
BRANCH   3  12
ATOM     12  C3  UNK     1      33.197  -2.683 -10.755  1.00  0.00    -0.028 A 
ATOM     13  C9  UNK     1      34.190  -3.654 -10.627  1.00  0.00     0.012 A 
ATOM     14  C13 UNK     1      35.436  -3.458 -11.223  1.00  0.00     0.037 A 
ATOM     15  C15 UNK     1      35.690  -2.293 -11.944  1.00  0.00     0.065 A 
ATOM     16  C14 UNK     1      34.696  -1.321 -12.071  1.00  0.00     0.037 A 
ATOM     17  C10 UNK     1      33.449  -1.517 -11.477  1.00  0.00     0.012 A 
BRANCH  15  18
ATOM     18  O5  UNK     1      36.906  -2.102 -12.524  1.00  0.00    -0.361 OA
ATOM     19  H12 UNK     1      37.525  -2.771 -12.186  1.00  0.00     0.217 HD
ENDBRANCH  15  18
ENDBRANCH   3  12
BRANCH   8  20
ATOM     20  O3  UNK     1      26.972  -3.249  -8.934  1.00  0.00    -0.360 OA
ATOM     21  H10 UNK     1      26.317  -2.590  -9.220  1.00  0.00     0.217 HD
ENDBRANCH   8  20
BRANCH  11  22
ATOM     22  O4  UNK     1      28.924  -0.693  -5.442  1.00  0.00    -0.361 OA
ATOM     23  H11 UNK     1      29.388  -1.222  -4.771  1.00  0.00     0.217 HD
ENDBRANCH  11  22
TORSDOF 4
ENDMDL
MODEL 18
REMARK VINA RESULT:      -5.7     15.869     16.747
REMARK  4 active torsions:
REMARK  status: ('A' for Active; 'I' for Inactive)
REMARK    1  A    between atoms: O3_3  and  C7_12 
REMARK    2  A    between atoms: O4_4  and  C12_17 
REMARK    3  A    between atoms: O5_5  and  C15_20 
REMARK    4  A    between atoms: C1_6  and  C3_8 
ROOT
ATOM      1  O1  UNK     1      43.515   1.931   7.426  1.00  0.00    -0.340 OA
ATOM      2  O2  UNK     1      44.081   4.768  10.334  1.00  0.00    -0.292 OA
ATOM      3  C1  UNK     1      42.666   1.975   8.583  1.00  0.00     0.169 C 
ATOM      4  C2  UNK     1      42.534   3.401   9.112  1.00  0.00     0.121 C 
ATOM      5  C4  UNK     1      45.020   3.413   8.644  1.00  0.00     0.076 A 
ATOM      6  C5  UNK     1      43.902   3.925   9.464  1.00  0.00     0.167 C 
ATOM      7  C6  UNK     1      44.758   2.460   7.656  1.00  0.00     0.089 A 
ATOM      8  C7  UNK     1      46.315   3.905   8.825  1.00  0.00     0.085 A 
ATOM      9  C8  UNK     1      45.789   2.024   6.822  1.00  0.00     0.074 A 
ATOM     10  C11 UNK     1      47.346   3.449   8.003  1.00  0.00     0.074 A 
ATOM     11  C12 UNK     1      47.083   2.515   7.000  1.00  0.00     0.071 A 
ENDROOT
BRANCH   3  12
ATOM     12  C3  UNK     1      41.314   1.405   8.208  1.00  0.00    -0.028 A 
ATOM     13  C9  UNK     1      40.376   2.207   7.558  1.00  0.00     0.012 A 
ATOM     14  C13 UNK     1      39.131   1.681   7.212  1.00  0.00     0.037 A 
ATOM     15  C15 UNK     1      38.824   0.355   7.515  1.00  0.00     0.065 A 
ATOM     16  C14 UNK     1      39.764  -0.447   8.165  1.00  0.00     0.037 A 
ATOM     17  C10 UNK     1      41.009   0.079   8.510  1.00  0.00     0.012 A 
BRANCH  15  18
ATOM     18  O5  UNK     1      37.610  -0.157   7.177  1.00  0.00    -0.361 OA
ATOM     19  H12 UNK     1      36.951   0.139   7.828  1.00  0.00     0.217 HD
ENDBRANCH  15  18
ENDBRANCH   3  12
BRANCH   8  20
ATOM     20  O3  UNK     1      46.625   4.829   9.776  1.00  0.00    -0.360 OA
ATOM     21  H10 UNK     1      45.838   5.360   9.983  1.00  0.00     0.217 HD
ENDBRANCH   8  20
BRANCH  11  22
ATOM     22  O4  UNK     1      48.091   2.080   6.195  1.00  0.00    -0.361 OA
ATOM     23  H11 UNK     1      48.371   1.196   6.489  1.00  0.00     0.217 HD
ENDBRANCH  11  22
TORSDOF 4
ENDMDL
MODEL 19
REMARK VINA RESULT:      -5.7     16.921     18.449
REMARK  4 active torsions:
REMARK  status: ('A' for Active; 'I' for Inactive)
REMARK    1  A    between atoms: O3_3  and  C7_12 
REMARK    2  A    between atoms: O4_4  and  C12_17 
REMARK    3  A    between atoms: O5_5  and  C15_20 
REMARK    4  A    between atoms: C1_6  and  C3_8 
ROOT
ATOM      1  O1  UNK     1      46.295   1.918   9.740  1.00  0.00    -0.340 OA
ATOM      2  O2  UNK     1      44.051   1.006   6.430  1.00  0.00    -0.292 OA
ATOM      3  C1  UNK     1      46.927   1.568   8.499  1.00  0.00     0.169 C 
ATOM      4  C2  UNK     1      46.061   1.976   7.309  1.00  0.00     0.121 C 
ATOM      5  C4  UNK     1      44.236   1.028   8.783  1.00  0.00     0.076 A 
ATOM      6  C5  UNK     1      44.725   1.286   7.413  1.00  0.00     0.167 C 
ATOM      7  C6  UNK     1      45.041   1.380   9.871  1.00  0.00     0.089 A 
ATOM      8  C7  UNK     1      42.969   0.480   8.991  1.00  0.00     0.085 A 
ATOM      9  C8  UNK     1      44.562   1.214  11.170  1.00  0.00     0.074 A 
ATOM     10  C11 UNK     1      42.503   0.297  10.294  1.00  0.00     0.074 A 
ATOM     11  C12 UNK     1      43.295   0.668  11.382  1.00  0.00     0.071 A 
ENDROOT
BRANCH   3  12
ATOM     12  C3  UNK     1      48.282   2.243   8.444  1.00  0.00    -0.028 A 
ATOM     13  C9  UNK     1      49.232   1.976   9.430  1.00  0.00     0.012 A 
ATOM     14  C13 UNK     1      50.481   2.598   9.379  1.00  0.00     0.037 A 
ATOM     15  C15 UNK     1      50.777   3.485   8.345  1.00  0.00     0.065 A 
ATOM     16  C14 UNK     1      49.825   3.751   7.360  1.00  0.00     0.037 A 
ATOM     17  C10 UNK     1      48.578   3.129   7.410  1.00  0.00     0.012 A 
BRANCH  15  18
ATOM     18  O5  UNK     1      51.995   4.091   8.296  1.00  0.00    -0.361 OA
ATOM     19  H12 UNK     1      51.981   4.770   7.600  1.00  0.00     0.217 HD
ENDBRANCH  15  18
ENDBRANCH   3  12
BRANCH   8  20
ATOM     20  O3  UNK     1      42.146   0.116   7.968  1.00  0.00    -0.360 OA
ATOM     21  H10 UNK     1      41.857  -0.803   8.094  1.00  0.00     0.217 HD
ENDBRANCH   8  20
BRANCH  11  22
ATOM     22  O4  UNK     1      42.833   0.494  12.650  1.00  0.00    -0.361 OA
ATOM     23  H11 UNK     1      42.428   1.325  12.955  1.00  0.00     0.217 HD
ENDBRANCH  11  22
TORSDOF 4
ENDMDL
MODEL 20
REMARK VINA RESULT:      -5.7     19.035     22.542
REMARK  4 active torsions:
REMARK  status: ('A' for Active; 'I' for Inactive)
REMARK    1  A    between atoms: O3_3  and  C7_12 
REMARK    2  A    between atoms: O4_4  and  C12_17 
REMARK    3  A    between atoms: O5_5  and  C15_20 
REMARK    4  A    between atoms: C1_6  and  C3_8 
ROOT
ATOM      1  O1  UNK     1      37.781  -5.153   5.444  1.00  0.00    -0.340 OA
ATOM      2  O2  UNK     1      37.448  -6.420   9.332  1.00  0.00    -0.292 OA
ATOM      3  C1  UNK     1      38.021  -6.526   5.792  1.00  0.00     0.169 C 
ATOM      4  C2  UNK     1      37.188  -6.938   7.004  1.00  0.00     0.121 C 
ATOM      5  C4  UNK     1      37.937  -4.667   7.829  1.00  0.00     0.076 A 
ATOM      6  C5  UNK     1      37.540  -6.048   8.169  1.00  0.00     0.167 C 
ATOM      7  C6  UNK     1      38.014  -4.291   6.484  1.00  0.00     0.089 A 
ATOM      8  C7  UNK     1      38.192  -3.734   8.837  1.00  0.00     0.085 A 
ATOM      9  C8  UNK     1      38.313  -2.970   6.149  1.00  0.00     0.074 A 
ATOM     10  C11 UNK     1      38.511  -2.419   8.496  1.00  0.00     0.074 A 
ATOM     11  C12 UNK     1      38.566  -2.036   7.155  1.00  0.00     0.071 A 
ENDROOT
BRANCH   3  12
ATOM     12  C3  UNK     1      37.697  -7.388   4.589  1.00  0.00    -0.028 A 
ATOM     13  C9  UNK     1      38.545  -8.438   4.238  1.00  0.00     0.012 A 
ATOM     14  C13 UNK     1      38.247  -9.232   3.130  1.00  0.00     0.037 A 
ATOM     15  C15 UNK     1      37.103  -8.976   2.375  1.00  0.00     0.065 A 
ATOM     16  C14 UNK     1      36.255  -7.924   2.728  1.00  0.00     0.037 A 
ATOM     17  C10 UNK     1      36.553  -7.131   3.836  1.00  0.00     0.012 A 
BRANCH  15  18
ATOM     18  O5  UNK     1      36.812  -9.750   1.294  1.00  0.00    -0.361 OA
ATOM     19  H12 UNK     1      35.877 -10.012   1.336  1.00  0.00     0.217 HD
ENDBRANCH  15  18
ENDBRANCH   3  12
BRANCH   8  20
ATOM     20  O3  UNK     1      38.136  -4.048  10.162  1.00  0.00    -0.360 OA
ATOM     21  H10 UNK     1      39.033  -4.221  10.493  1.00  0.00     0.217 HD
ENDBRANCH   8  20
BRANCH  11  22
ATOM     22  O4  UNK     1      38.869  -0.750   6.827  1.00  0.00    -0.361 OA
ATOM     23  H11 UNK     1      38.945  -0.226   7.644  1.00  0.00     0.217 HD
ENDBRANCH  11  22
TORSDOF 4
ENDMDL
