MODEL 1
REMARK VINA RESULT:      -7.1      0.000      0.000
REMARK  4 active torsions:
REMARK  status: ('A' for Active; 'I' for Inactive)
REMARK    1  A    between atoms: O3_3  and  C7_12 
REMARK    2  A    between atoms: O4_4  and  C12_17 
REMARK    3  A    between atoms: O5_5  and  C15_20 
REMARK    4  A    between atoms: C1_6  and  C3_8 
ROOT
ATOM      1  O1  UNK     1      40.462  15.123  -1.992  1.00  0.00    -0.340 OA
ATOM      2  O2  UNK     1      38.812  18.079   0.325  1.00  0.00    -0.292 OA
ATOM      3  C1  UNK     1      40.525  15.053  -0.559  1.00  0.00     0.169 C 
ATOM      4  C2  UNK     1      39.323  15.748   0.076  1.00  0.00     0.121 C 
ATOM      5  C4  UNK     1      39.833  17.462  -1.712  1.00  0.00     0.076 A 
ATOM      6  C5  UNK     1      39.298  17.189  -0.362  1.00  0.00     0.167 C 
ATOM      7  C6  UNK     1      40.366  16.408  -2.460  1.00  0.00     0.089 A 
ATOM      8  C7  UNK     1      39.770  18.749  -2.253  1.00  0.00     0.085 A 
ATOM      9  C8  UNK     1      40.804  16.635  -3.765  1.00  0.00     0.074 A 
ATOM     10  C11 UNK     1      40.229  18.975  -3.551  1.00  0.00     0.074 A 
ATOM     11  C12 UNK     1      40.740  17.919  -4.308  1.00  0.00     0.071 A 
ENDROOT
BRANCH   3  12
ATOM     12  C3  UNK     1      40.591  13.595  -0.154  1.00  0.00    -0.028 A 
ATOM     13  C9  UNK     1      40.162  13.206   1.115  1.00  0.00     0.012 A 
ATOM     14  C13 UNK     1      40.222  11.863   1.489  1.00  0.00     0.037 A 
ATOM     15  C15 UNK     1      40.711  10.911   0.595  1.00  0.00     0.065 A 
ATOM     16  C14 UNK     1      41.140  11.302  -0.675  1.00  0.00     0.037 A 
ATOM     17  C10 UNK     1      41.079  12.645  -1.048  1.00  0.00     0.012 A 
BRANCH  15  18
ATOM     18  O5  UNK     1      40.770   9.602   0.959  1.00  0.00    -0.361 OA
ATOM     19  H12 UNK     1      41.680   9.281   0.837  1.00  0.00     0.217 HD
ENDBRANCH  15  18
ENDBRANCH   3  12
BRANCH   8  20
ATOM     20  O3  UNK     1      39.266  19.812  -1.566  1.00  0.00    -0.360 OA
ATOM     21  H10 UNK     1      38.312  19.689  -1.430  1.00  0.00     0.217 HD
ENDBRANCH   8  20
BRANCH  11  22
ATOM     22  O4  UNK     1      41.180  18.143  -5.577  1.00  0.00    -0.361 OA
ATOM     23  H11 UNK     1      42.074  17.772  -5.671  1.00  0.00     0.217 HD
ENDBRANCH  11  22
TORSDOF 4
ENDMDL
MODEL 2
REMARK VINA RESULT:      -6.1      1.930      6.768
REMARK  4 active torsions:
REMARK  status: ('A' for Active; 'I' for Inactive)
REMARK    1  A    between atoms: O3_3  and  C7_12 
REMARK    2  A    between atoms: O4_4  and  C12_17 
REMARK    3  A    between atoms: O5_5  and  C15_20 
REMARK    4  A    between atoms: C1_6  and  C3_8 
ROOT
ATOM      1  O1  UNK     1      39.369  15.079  -0.315  1.00  0.00    -0.340 OA
ATOM      2  O2  UNK     1      42.519  14.420  -2.858  1.00  0.00    -0.292 OA
ATOM      3  C1  UNK     1      40.291  16.133  -0.629  1.00  0.00     0.169 C 
ATOM      4  C2  UNK     1      40.872  15.955  -2.030  1.00  0.00     0.121 C 
ATOM      5  C4  UNK     1      41.011  13.547  -1.266  1.00  0.00     0.076 A 
ATOM      6  C5  UNK     1      41.575  14.624  -2.106  1.00  0.00     0.167 C 
ATOM      7  C6  UNK     1      39.925  13.831  -0.433  1.00  0.00     0.089 A 
ATOM      8  C7  UNK     1      41.529  12.251  -1.333  1.00  0.00     0.085 A 
ATOM      9  C8  UNK     1      39.332  12.808   0.307  1.00  0.00     0.074 A 
ATOM     10  C11 UNK     1      40.946  11.236  -0.574  1.00  0.00     0.074 A 
ATOM     11  C12 UNK     1      39.846  11.512   0.241  1.00  0.00     0.071 A 
ENDROOT
BRANCH   3  12
ATOM     12  C3  UNK     1      39.566  17.457  -0.504  1.00  0.00    -0.028 A 
ATOM     13  C9  UNK     1      38.780  17.716   0.619  1.00  0.00     0.012 A 
ATOM     14  C13 UNK     1      38.112  18.936   0.734  1.00  0.00     0.037 A 
ATOM     15  C15 UNK     1      38.230  19.894  -0.271  1.00  0.00     0.065 A 
ATOM     16  C14 UNK     1      39.016  19.633  -1.395  1.00  0.00     0.037 A 
ATOM     17  C10 UNK     1      39.685  18.415  -1.509  1.00  0.00     0.012 A 
BRANCH  15  18
ATOM     18  O5  UNK     1      37.578  21.083  -0.159  1.00  0.00    -0.361 OA
ATOM     19  H12 UNK     1      36.696  20.925   0.218  1.00  0.00     0.217 HD
ENDBRANCH  15  18
ENDBRANCH   3  12
BRANCH   8  20
ATOM     20  O3  UNK     1      42.589  11.922  -2.123  1.00  0.00    -0.360 OA
ATOM     21  H10 UNK     1      43.339  11.657  -1.566  1.00  0.00     0.217 HD
ENDBRANCH   8  20
BRANCH  11  22
ATOM     22  O4  UNK     1      39.276  10.516   0.973  1.00  0.00    -0.361 OA
ATOM     23  H11 UNK     1      38.383  10.794   1.243  1.00  0.00     0.217 HD
ENDBRANCH  11  22
TORSDOF 4
ENDMDL
MODEL 3
REMARK VINA RESULT:      -5.6     10.172     12.575
REMARK  4 active torsions:
REMARK  status: ('A' for Active; 'I' for Inactive)
REMARK    1  A    between atoms: O3_3  and  C7_12 
REMARK    2  A    between atoms: O4_4  and  C12_17 
REMARK    3  A    between atoms: O5_5  and  C15_20 
REMARK    4  A    between atoms: C1_6  and  C3_8 
ROOT
ATOM      1  O1  UNK     1      48.342   9.847  -6.827  1.00  0.00    -0.340 OA
ATOM      2  O2  UNK     1      45.808  10.060 -10.046  1.00  0.00    -0.292 OA
ATOM      3  C1  UNK     1      48.001  11.114  -7.409  1.00  0.00     0.169 C 
ATOM      4  C2  UNK     1      46.603  11.077  -8.023  1.00  0.00     0.121 C 
ATOM      5  C4  UNK     1      47.425   8.829  -8.844  1.00  0.00     0.076 A 
ATOM      6  C5  UNK     1      46.558  10.002  -9.079  1.00  0.00     0.167 C 
ATOM      7  C6  UNK     1      48.253   8.809  -7.718  1.00  0.00     0.089 A 
ATOM      8  C7  UNK     1      47.388   7.735  -9.712  1.00  0.00     0.085 A 
ATOM      9  C8  UNK     1      49.020   7.677  -7.440  1.00  0.00     0.074 A 
ATOM     10  C11 UNK     1      48.173   6.614  -9.441  1.00  0.00     0.074 A 
ATOM     11  C12 UNK     1      48.983   6.582  -8.305  1.00  0.00     0.071 A 
ENDROOT
BRANCH   3  12
ATOM     12  C3  UNK     1      48.096  12.177  -6.334  1.00  0.00    -0.028 A 
ATOM     13  C9  UNK     1      48.569  13.449  -6.653  1.00  0.00     0.012 A 
ATOM     14  C13 UNK     1      48.656  14.428  -5.662  1.00  0.00     0.037 A 
ATOM     15  C15 UNK     1      48.271  14.134  -4.355  1.00  0.00     0.065 A 
ATOM     16  C14 UNK     1      47.798  12.860  -4.037  1.00  0.00     0.037 A 
ATOM     17  C10 UNK     1      47.710  11.882  -5.027  1.00  0.00     0.012 A 
BRANCH  15  18
ATOM     18  O5  UNK     1      48.356  15.088  -3.388  1.00  0.00    -0.361 OA
ATOM     19  H12 UNK     1      47.858  15.873  -3.675  1.00  0.00     0.217 HD
ENDBRANCH  15  18
ENDBRANCH   3  12
BRANCH   8  20
ATOM     20  O3  UNK     1      46.604   7.705 -10.825  1.00  0.00    -0.360 OA
ATOM     21  H10 UNK     1      45.906   8.376 -10.750  1.00  0.00     0.217 HD
ENDBRANCH   8  20
BRANCH  11  22
ATOM     22  O4  UNK     1      49.741   5.482  -8.041  1.00  0.00    -0.361 OA
ATOM     23  H11 UNK     1      50.242   5.245  -8.841  1.00  0.00     0.217 HD
ENDBRANCH  11  22
TORSDOF 4
ENDMDL
MODEL 4
REMARK VINA RESULT:      -5.6     10.172     12.548
REMARK  4 active torsions:
REMARK  status: ('A' for Active; 'I' for Inactive)
REMARK    1  A    between atoms: O3_3  and  C7_12 
REMARK    2  A    between atoms: O4_4  and  C12_17 
REMARK    3  A    between atoms: O5_5  and  C15_20 
REMARK    4  A    between atoms: C1_6  and  C3_8 
ROOT
ATOM      1  O1  UNK     1      48.342   9.847  -6.828  1.00  0.00    -0.340 OA
ATOM      2  O2  UNK     1      45.809  10.060 -10.047  1.00  0.00    -0.292 OA
ATOM      3  C1  UNK     1      48.001  11.115  -7.411  1.00  0.00     0.169 C 
ATOM      4  C2  UNK     1      46.603  11.077  -8.025  1.00  0.00     0.121 C 
ATOM      5  C4  UNK     1      47.425   8.830  -8.845  1.00  0.00     0.076 A 
ATOM      6  C5  UNK     1      46.558  10.003  -9.081  1.00  0.00     0.167 C 
ATOM      7  C6  UNK     1      48.253   8.809  -7.719  1.00  0.00     0.089 A 
ATOM      8  C7  UNK     1      47.388   7.736  -9.713  1.00  0.00     0.085 A 
ATOM      9  C8  UNK     1      49.019   7.677  -7.441  1.00  0.00     0.074 A 
ATOM     10  C11 UNK     1      48.173   6.614  -9.442  1.00  0.00     0.074 A 
ATOM     11  C12 UNK     1      48.982   6.582  -8.306  1.00  0.00     0.071 A 
ENDROOT
BRANCH   3  12
ATOM     12  C3  UNK     1      48.096  12.177  -6.335  1.00  0.00    -0.028 A 
ATOM     13  C9  UNK     1      47.709  11.881  -5.029  1.00  0.00     0.012 A 
ATOM     14  C13 UNK     1      47.797  12.860  -4.038  1.00  0.00     0.037 A 
ATOM     15  C15 UNK     1      48.271  14.133  -4.354  1.00  0.00     0.065 A 
ATOM     16  C14 UNK     1      48.657  14.428  -5.663  1.00  0.00     0.037 A 
ATOM     17  C10 UNK     1      48.570  13.449  -6.653  1.00  0.00     0.012 A 
BRANCH  15  18
ATOM     18  O5  UNK     1      48.356  15.087  -3.388  1.00  0.00    -0.361 OA
ATOM     19  H12 UNK     1      48.181  14.678  -2.524  1.00  0.00     0.217 HD
ENDBRANCH  15  18
ENDBRANCH   3  12
BRANCH   8  20
ATOM     20  O3  UNK     1      46.604   7.705 -10.827  1.00  0.00    -0.360 OA
ATOM     21  H10 UNK     1      45.940   8.413 -10.776  1.00  0.00     0.217 HD
ENDBRANCH   8  20
BRANCH  11  22
ATOM     22  O4  UNK     1      49.740   5.482  -8.042  1.00  0.00    -0.361 OA
ATOM     23  H11 UNK     1      49.197   4.685  -8.176  1.00  0.00     0.217 HD
ENDBRANCH  11  22
TORSDOF 4
ENDMDL
MODEL 5
REMARK VINA RESULT:      -5.5      9.819     11.863
REMARK  4 active torsions:
REMARK  status: ('A' for Active; 'I' for Inactive)
REMARK    1  A    between atoms: O3_3  and  C7_12 
REMARK    2  A    between atoms: O4_4  and  C12_17 
REMARK    3  A    between atoms: O5_5  and  C15_20 
REMARK    4  A    between atoms: C1_6  and  C3_8 
ROOT
ATOM      1  O1  UNK     1      46.160  11.113  -7.763  1.00  0.00    -0.340 OA
ATOM      2  O2  UNK     1      48.823  10.223 -10.753  1.00  0.00    -0.292 OA
ATOM      3  C1  UNK     1      47.575  11.163  -7.524  1.00  0.00     0.169 C 
ATOM      4  C2  UNK     1      48.334  11.525  -8.799  1.00  0.00     0.121 C 
ATOM      5  C4  UNK     1      46.688   9.888  -9.804  1.00  0.00     0.076 A 
ATOM      6  C5  UNK     1      48.033  10.498  -9.859  1.00  0.00     0.167 C 
ATOM      7  C6  UNK     1      45.819  10.248  -8.770  1.00  0.00     0.089 A 
ATOM      8  C7  UNK     1      46.273   8.996 -10.795  1.00  0.00     0.085 A 
ATOM      9  C8  UNK     1      44.520   9.740  -8.747  1.00  0.00     0.074 A 
ATOM     10  C11 UNK     1      44.980   8.474 -10.756  1.00  0.00     0.074 A 
ATOM     11  C12 UNK     1      44.102   8.849  -9.737  1.00  0.00     0.071 A 
ENDROOT
BRANCH   3  12
ATOM     12  C3  UNK     1      47.840  12.173  -6.426  1.00  0.00    -0.028 A 
ATOM     13  C9  UNK     1      47.598  11.832  -5.095  1.00  0.00     0.012 A 
ATOM     14  C13 UNK     1      47.843  12.762  -4.083  1.00  0.00     0.037 A 
ATOM     15  C15 UNK     1      48.328  14.030  -4.403  1.00  0.00     0.065 A 
ATOM     16  C14 UNK     1      48.569  14.369  -5.735  1.00  0.00     0.037 A 
ATOM     17  C10 UNK     1      48.325  13.439  -6.746  1.00  0.00     0.012 A 
BRANCH  15  18
ATOM     18  O5  UNK     1      48.566  14.936  -3.417  1.00  0.00    -0.361 OA
ATOM     19  H12 UNK     1      48.925  14.472  -2.642  1.00  0.00     0.217 HD
ENDBRANCH  15  18
ENDBRANCH   3  12
BRANCH   8  20
ATOM     20  O3  UNK     1      47.081   8.608 -11.822  1.00  0.00    -0.360 OA
ATOM     21  H10 UNK     1      47.688   9.332 -12.049  1.00  0.00     0.217 HD
ENDBRANCH   8  20
BRANCH  11  22
ATOM     22  O4  UNK     1      42.839   8.344  -9.708  1.00  0.00    -0.361 OA
ATOM     23  H11 UNK     1      42.289   8.831 -10.346  1.00  0.00     0.217 HD
ENDBRANCH  11  22
TORSDOF 4
ENDMDL
MODEL 6
REMARK VINA RESULT:      -5.5      9.841     11.913
REMARK  4 active torsions:
REMARK  status: ('A' for Active; 'I' for Inactive)
REMARK    1  A    between atoms: O3_3  and  C7_12 
REMARK    2  A    between atoms: O4_4  and  C12_17 
REMARK    3  A    between atoms: O5_5  and  C15_20 
REMARK    4  A    between atoms: C1_6  and  C3_8 
ROOT
ATOM      1  O1  UNK     1      46.208  11.116  -7.762  1.00  0.00    -0.340 OA
ATOM      2  O2  UNK     1      48.882  10.273 -10.756  1.00  0.00    -0.292 OA
ATOM      3  C1  UNK     1      47.622  11.183  -7.523  1.00  0.00     0.169 C 
ATOM      4  C2  UNK     1      48.376  11.561  -8.797  1.00  0.00     0.121 C 
ATOM      5  C4  UNK     1      46.751   9.907  -9.809  1.00  0.00     0.076 A 
ATOM      6  C5  UNK     1      48.088  10.535  -9.862  1.00  0.00     0.167 C 
ATOM      7  C6  UNK     1      45.878  10.251  -8.772  1.00  0.00     0.089 A 
ATOM      8  C7  UNK     1      46.348   9.013 -10.804  1.00  0.00     0.085 A 
ATOM      9  C8  UNK     1      44.586   9.725  -8.751  1.00  0.00     0.074 A 
ATOM     10  C11 UNK     1      45.062   8.475 -10.766  1.00  0.00     0.074 A 
ATOM     11  C12 UNK     1      44.180   8.834  -9.746  1.00  0.00     0.071 A 
ENDROOT
BRANCH   3  12
ATOM     12  C3  UNK     1      47.874  12.191  -6.421  1.00  0.00    -0.028 A 
ATOM     13  C9  UNK     1      48.367  13.458  -6.735  1.00  0.00     0.012 A 
ATOM     14  C13 UNK     1      48.598  14.386  -5.719  1.00  0.00     0.037 A 
ATOM     15  C15 UNK     1      48.338  14.048  -4.392  1.00  0.00     0.065 A 
ATOM     16  C14 UNK     1      47.846  12.779  -4.079  1.00  0.00     0.037 A 
ATOM     17  C10 UNK     1      47.613  11.852  -5.094  1.00  0.00     0.012 A 
BRANCH  15  18
ATOM     18  O5  UNK     1      48.565  14.953  -3.401  1.00  0.00    -0.361 OA
ATOM     19  H12 UNK     1      47.846  15.607  -3.401  1.00  0.00     0.217 HD
ENDBRANCH  15  18
ENDBRANCH   3  12
BRANCH   8  20
ATOM     20  O3  UNK     1      47.160   8.641 -11.832  1.00  0.00    -0.360 OA
ATOM     21  H10 UNK     1      47.485   9.432 -12.293  1.00  0.00     0.217 HD
ENDBRANCH   8  20
BRANCH  11  22
ATOM     22  O4  UNK     1      42.923   8.312  -9.718  1.00  0.00    -0.361 OA
ATOM     23  H11 UNK     1      42.743   7.970  -8.825  1.00  0.00     0.217 HD
ENDBRANCH  11  22
TORSDOF 4
ENDMDL
MODEL 7
REMARK VINA RESULT:      -5.5      9.731     11.815
REMARK  4 active torsions:
REMARK  status: ('A' for Active; 'I' for Inactive)
REMARK    1  A    between atoms: O3_3  and  C7_12 
REMARK    2  A    between atoms: O4_4  and  C12_17 
REMARK    3  A    between atoms: O5_5  and  C15_20 
REMARK    4  A    between atoms: C1_6  and  C3_8 
ROOT
ATOM      1  O1  UNK     1      46.268  11.498  -7.858  1.00  0.00    -0.340 OA
ATOM      2  O2  UNK     1      48.207   8.112  -9.122  1.00  0.00    -0.292 OA
ATOM      3  C1  UNK     1      47.425  11.012  -7.161  1.00  0.00     0.169 C 
ATOM      4  C2  UNK     1      48.371  10.281  -8.111  1.00  0.00     0.121 C 
ATOM      5  C4  UNK     1      46.188   9.324  -8.959  1.00  0.00     0.076 A 
ATOM      6  C5  UNK     1      47.637   9.128  -8.746  1.00  0.00     0.167 C 
ATOM      7  C6  UNK     1      45.589  10.509  -8.522  1.00  0.00     0.089 A 
ATOM      8  C7  UNK     1      45.433   8.356  -9.626  1.00  0.00     0.085 A 
ATOM      9  C8  UNK     1      44.239  10.742  -8.784  1.00  0.00     0.074 A 
ATOM     10  C11 UNK     1      44.078   8.585  -9.866  1.00  0.00     0.074 A 
ATOM     11  C12 UNK     1      43.483   9.777  -9.452  1.00  0.00     0.071 A 
ENDROOT
BRANCH   3  12
ATOM     12  C3  UNK     1      48.115  12.187  -6.500  1.00  0.00    -0.028 A 
ATOM     13  C9  UNK     1      47.806  12.525  -5.183  1.00  0.00     0.012 A 
ATOM     14  C13 UNK     1      48.442  13.608  -4.574  1.00  0.00     0.037 A 
ATOM     15  C15 UNK     1      49.385  14.351  -5.282  1.00  0.00     0.065 A 
ATOM     16  C14 UNK     1      49.694  14.012  -6.600  1.00  0.00     0.037 A 
ATOM     17  C10 UNK     1      49.058  12.929  -7.208  1.00  0.00     0.012 A 
BRANCH  15  18
ATOM     18  O5  UNK     1      50.005  15.407  -4.688  1.00  0.00    -0.361 OA
ATOM     19  H12 UNK     1      49.575  16.229  -4.979  1.00  0.00     0.217 HD
ENDBRANCH  15  18
ENDBRANCH   3  12
BRANCH   8  20
ATOM     20  O3  UNK     1      45.965   7.183 -10.068  1.00  0.00    -0.360 OA
ATOM     21  H10 UNK     1      46.861   7.075  -9.707  1.00  0.00     0.217 HD
ENDBRANCH   8  20
BRANCH  11  22
ATOM     22  O4  UNK     1      42.162   9.999  -9.696  1.00  0.00    -0.361 OA
ATOM     23  H11 UNK     1      41.714   9.143  -9.811  1.00  0.00     0.217 HD
ENDBRANCH  11  22
TORSDOF 4
ENDMDL
MODEL 8
REMARK VINA RESULT:      -5.5      9.734     11.861
REMARK  4 active torsions:
REMARK  status: ('A' for Active; 'I' for Inactive)
REMARK    1  A    between atoms: O3_3  and  C7_12 
REMARK    2  A    between atoms: O4_4  and  C12_17 
REMARK    3  A    between atoms: O5_5  and  C15_20 
REMARK    4  A    between atoms: C1_6  and  C3_8 
ROOT
ATOM      1  O1  UNK     1      46.267  11.494  -7.860  1.00  0.00    -0.340 OA
ATOM      2  O2  UNK     1      48.205   8.105  -9.121  1.00  0.00    -0.292 OA
ATOM      3  C1  UNK     1      47.423  11.007  -7.161  1.00  0.00     0.169 C 
ATOM      4  C2  UNK     1      48.370  10.275  -8.110  1.00  0.00     0.121 C 
ATOM      5  C4  UNK     1      46.187   9.319  -8.959  1.00  0.00     0.076 A 
ATOM      6  C5  UNK     1      47.635   9.122  -8.746  1.00  0.00     0.167 C 
ATOM      7  C6  UNK     1      45.589  10.505  -8.523  1.00  0.00     0.089 A 
ATOM      8  C7  UNK     1      45.431   8.352  -9.626  1.00  0.00     0.085 A 
ATOM      9  C8  UNK     1      44.239  10.739  -8.786  1.00  0.00     0.074 A 
ATOM     10  C11 UNK     1      44.076   8.582  -9.868  1.00  0.00     0.074 A 
ATOM     11  C12 UNK     1      43.482   9.775  -9.454  1.00  0.00     0.071 A 
ENDROOT
BRANCH   3  12
ATOM     12  C3  UNK     1      48.114  12.182  -6.500  1.00  0.00    -0.028 A 
ATOM     13  C9  UNK     1      49.055  12.925  -7.212  1.00  0.00     0.012 A 
ATOM     14  C13 UNK     1      49.691  14.008  -6.603  1.00  0.00     0.037 A 
ATOM     15  C15 UNK     1      49.386  14.346  -5.285  1.00  0.00     0.065 A 
ATOM     16  C14 UNK     1      48.444  13.601  -4.574  1.00  0.00     0.037 A 
ATOM     17  C10 UNK     1      47.808  12.519  -5.183  1.00  0.00     0.012 A 
BRANCH  15  18
ATOM     18  O5  UNK     1      50.007  15.402  -4.692  1.00  0.00    -0.361 OA
ATOM     19  H12 UNK     1      50.066  15.236  -3.735  1.00  0.00     0.217 HD
ENDBRANCH  15  18
ENDBRANCH   3  12
BRANCH   8  20
ATOM     20  O3  UNK     1      45.962   7.178 -10.068  1.00  0.00    -0.360 OA
ATOM     21  H10 UNK     1      46.084   7.217 -11.031  1.00  0.00     0.217 HD
ENDBRANCH   8  20
BRANCH  11  22
ATOM     22  O4  UNK     1      42.161   9.997  -9.699  1.00  0.00    -0.361 OA
ATOM     23  H11 UNK     1      42.066  10.842 -10.172  1.00  0.00     0.217 HD
ENDBRANCH  11  22
TORSDOF 4
ENDMDL
MODEL 9
REMARK VINA RESULT:      -5.5      9.780     11.094
REMARK  4 active torsions:
REMARK  status: ('A' for Active; 'I' for Inactive)
REMARK    1  A    between atoms: O3_3  and  C7_12 
REMARK    2  A    between atoms: O4_4  and  C12_17 
REMARK    3  A    between atoms: O5_5  and  C15_20 
REMARK    4  A    between atoms: C1_6  and  C3_8 
ROOT
ATOM      1  O1  UNK     1      46.349  11.335  -7.254  1.00  0.00    -0.340 OA
ATOM      2  O2  UNK     1      48.534  12.093 -10.641  1.00  0.00    -0.292 OA
ATOM      3  C1  UNK     1      47.775  11.167  -7.260  1.00  0.00     0.169 C 
ATOM      4  C2  UNK     1      48.436  12.128  -8.245  1.00  0.00     0.121 C 
ATOM      5  C4  UNK     1      46.486  11.410  -9.687  1.00  0.00     0.076 A 
ATOM      6  C5  UNK     1      47.887  11.874  -9.625  1.00  0.00     0.167 C 
ATOM      7  C6  UNK     1      45.789  11.188  -8.496  1.00  0.00     0.089 A 
ATOM      8  C7  UNK     1      45.851  11.235 -10.919  1.00  0.00     0.085 A 
ATOM      9  C8  UNK     1      44.442  10.824  -8.537  1.00  0.00     0.074 A 
ATOM     10  C11 UNK     1      44.510  10.851 -10.955  1.00  0.00     0.074 A 
ATOM     11  C12 UNK     1      43.805  10.651  -9.767  1.00  0.00     0.071 A 
ENDROOT
BRANCH   3  12
ATOM     12  C3  UNK     1      48.289  11.387  -5.852  1.00  0.00    -0.028 A 
ATOM     13  C9  UNK     1      48.066  12.607  -5.213  1.00  0.00     0.012 A 
ATOM     14  C13 UNK     1      48.540  12.810  -3.917  1.00  0.00     0.037 A 
ATOM     15  C15 UNK     1      49.236  11.795  -3.261  1.00  0.00     0.065 A 
ATOM     16  C14 UNK     1      49.459  10.575  -3.902  1.00  0.00     0.037 A 
ATOM     17  C10 UNK     1      48.984  10.372  -5.197  1.00  0.00     0.012 A 
BRANCH  15  18
ATOM     18  O5  UNK     1      49.698  11.994  -1.996  1.00  0.00    -0.361 OA
ATOM     19  H12 UNK     1      50.438  12.623  -2.027  1.00  0.00     0.217 HD
ENDBRANCH  15  18
ENDBRANCH   3  12
BRANCH   8  20
ATOM     20  O3  UNK     1      46.485  11.433 -12.108  1.00  0.00    -0.360 OA
ATOM     21  H10 UNK     1      46.080  10.872 -12.790  1.00  0.00     0.217 HD
ENDBRANCH   8  20
BRANCH  11  22
ATOM     22  O4  UNK     1      42.495  10.283  -9.808  1.00  0.00    -0.361 OA
ATOM     23  H11 UNK     1      42.392   9.552 -10.441  1.00  0.00     0.217 HD
ENDBRANCH  11  22
TORSDOF 4
ENDMDL
MODEL 10
REMARK VINA RESULT:      -5.4      9.786     11.118
REMARK  4 active torsions:
REMARK  status: ('A' for Active; 'I' for Inactive)
REMARK    1  A    between atoms: O3_3  and  C7_12 
REMARK    2  A    between atoms: O4_4  and  C12_17 
REMARK    3  A    between atoms: O5_5  and  C15_20 
REMARK    4  A    between atoms: C1_6  and  C3_8 
ROOT
ATOM      1  O1  UNK     1      46.337  11.342  -7.270  1.00  0.00    -0.340 OA
ATOM      2  O2  UNK     1      48.521  12.075 -10.664  1.00  0.00    -0.292 OA
ATOM      3  C1  UNK     1      47.763  11.170  -7.277  1.00  0.00     0.169 C 
ATOM      4  C2  UNK     1      48.425  12.125  -8.268  1.00  0.00     0.121 C 
ATOM      5  C4  UNK     1      46.472  11.402  -9.704  1.00  0.00     0.076 A 
ATOM      6  C5  UNK     1      47.874  11.864  -9.646  1.00  0.00     0.167 C 
ATOM      7  C6  UNK     1      45.775  11.188  -8.511  1.00  0.00     0.089 A 
ATOM      8  C7  UNK     1      45.836  11.222 -10.935  1.00  0.00     0.085 A 
ATOM      9  C8  UNK     1      44.428  10.827  -8.549  1.00  0.00     0.074 A 
ATOM     10  C11 UNK     1      44.494  10.840 -10.967  1.00  0.00     0.074 A 
ATOM     11  C12 UNK     1      43.790  10.648  -9.778  1.00  0.00     0.071 A 
ENDROOT
BRANCH   3  12
ATOM     12  C3  UNK     1      48.279  11.398  -5.871  1.00  0.00    -0.028 A 
ATOM     13  C9  UNK     1      48.962  10.380  -5.207  1.00  0.00     0.012 A 
ATOM     14  C13 UNK     1      49.438  10.590  -3.912  1.00  0.00     0.037 A 
ATOM     15  C15 UNK     1      49.230  11.817  -3.283  1.00  0.00     0.065 A 
ATOM     16  C14 UNK     1      48.546  12.835  -3.949  1.00  0.00     0.037 A 
ATOM     17  C10 UNK     1      48.071  12.625  -5.243  1.00  0.00     0.012 A 
BRANCH  15  18
ATOM     18  O5  UNK     1      49.694  12.022  -2.020  1.00  0.00    -0.361 OA
ATOM     19  H12 UNK     1      50.194  12.855  -1.999  1.00  0.00     0.217 HD
ENDBRANCH  15  18
ENDBRANCH   3  12
BRANCH   8  20
ATOM     20  O3  UNK     1      46.469  11.412 -12.125  1.00  0.00    -0.360 OA
ATOM     21  H10 UNK     1      46.201  12.265 -12.504  1.00  0.00     0.217 HD
ENDBRANCH   8  20
BRANCH  11  22
ATOM     22  O4  UNK     1      42.479  10.284  -9.815  1.00  0.00    -0.361 OA
ATOM     23  H11 UNK     1      42.395   9.460 -10.326  1.00  0.00     0.217 HD
ENDBRANCH  11  22
TORSDOF 4
ENDMDL
MODEL 11
REMARK VINA RESULT:      -5.4      9.746     11.367
REMARK  4 active torsions:
REMARK  status: ('A' for Active; 'I' for Inactive)
REMARK    1  A    between atoms: O3_3  and  C7_12 
REMARK    2  A    between atoms: O4_4  and  C12_17 
REMARK    3  A    between atoms: O5_5  and  C15_20 
REMARK    4  A    between atoms: C1_6  and  C3_8 
ROOT
ATOM      1  O1  UNK     1      47.300  11.856  -6.885  1.00  0.00    -0.340 OA
ATOM      2  O2  UNK     1      50.699  12.741  -9.004  1.00  0.00    -0.292 OA
ATOM      3  C1  UNK     1      47.323  11.741  -8.316  1.00  0.00     0.169 C 
ATOM      4  C2  UNK     1      48.724  11.393  -8.816  1.00  0.00     0.121 C 
ATOM      5  C4  UNK     1      49.370  13.128  -7.092  1.00  0.00     0.076 A 
ATOM      6  C5  UNK     1      49.685  12.467  -8.375  1.00  0.00     0.167 C 
ATOM      7  C6  UNK     1      48.205  12.768  -6.408  1.00  0.00     0.089 A 
ATOM      8  C7  UNK     1      50.246  14.070  -6.547  1.00  0.00     0.085 A 
ATOM      9  C8  UNK     1      47.933  13.327  -5.159  1.00  0.00     0.074 A 
ATOM     10  C11 UNK     1      49.958  14.641  -5.307  1.00  0.00     0.074 A 
ATOM     11  C12 UNK     1      48.807  14.267  -4.611  1.00  0.00     0.071 A 
ENDROOT
BRANCH   3  12
ATOM     12  C3  UNK     1      46.318  10.685  -8.728  1.00  0.00    -0.028 A 
ATOM     13  C9  UNK     1      44.952  10.953  -8.643  1.00  0.00     0.012 A 
ATOM     14  C13 UNK     1      44.027   9.980  -9.023  1.00  0.00     0.037 A 
ATOM     15  C15 UNK     1      44.467   8.742  -9.487  1.00  0.00     0.065 A 
ATOM     16  C14 UNK     1      45.835   8.475  -9.573  1.00  0.00     0.037 A 
ATOM     17  C10 UNK     1      46.760   9.448  -9.194  1.00  0.00     0.012 A 
BRANCH  15  18
ATOM     18  O5  UNK     1      43.565   7.793  -9.857  1.00  0.00    -0.361 OA
ATOM     19  H12 UNK     1      43.763   6.967  -9.384  1.00  0.00     0.217 HD
ENDBRANCH  15  18
ENDBRANCH   3  12
BRANCH   8  20
ATOM     20  O3  UNK     1      51.391  14.459  -7.173  1.00  0.00    -0.360 OA
ATOM     21  H10 UNK     1      52.008  13.711  -7.217  1.00  0.00     0.217 HD
ENDBRANCH   8  20
BRANCH  11  22
ATOM     22  O4  UNK     1      48.535  14.822  -3.398  1.00  0.00    -0.361 OA
ATOM     23  H11 UNK     1      48.019  15.636  -3.532  1.00  0.00     0.217 HD
ENDBRANCH  11  22
TORSDOF 4
ENDMDL
MODEL 12
REMARK VINA RESULT:      -5.4      9.752     12.266
REMARK  4 active torsions:
REMARK  status: ('A' for Active; 'I' for Inactive)
REMARK    1  A    between atoms: O3_3  and  C7_12 
REMARK    2  A    between atoms: O4_4  and  C12_17 
REMARK    3  A    between atoms: O5_5  and  C15_20 
REMARK    4  A    between atoms: C1_6  and  C3_8 
ROOT
ATOM      1  O1  UNK     1      47.766  11.337  -5.916  1.00  0.00    -0.340 OA
ATOM      2  O2  UNK     1      50.707   8.635  -6.852  1.00  0.00    -0.292 OA
ATOM      3  C1  UNK     1      48.151  11.115  -7.282  1.00  0.00     0.169 C 
ATOM      4  C2  UNK     1      48.646   9.685  -7.487  1.00  0.00     0.121 C 
ATOM      5  C4  UNK     1      49.812  10.165  -5.294  1.00  0.00     0.076 A 
ATOM      6  C5  UNK     1      49.822   9.436  -6.579  1.00  0.00     0.167 C 
ATOM      7  C6  UNK     1      48.771  11.059  -5.026  1.00  0.00     0.089 A 
ATOM      8  C7  UNK     1      50.806   9.934  -4.340  1.00  0.00     0.085 A 
ATOM      9  C8  UNK     1      48.705  11.697  -3.787  1.00  0.00     0.074 A 
ATOM     10  C11 UNK     1      50.747  10.591  -3.110  1.00  0.00     0.074 A 
ATOM     11  C12 UNK     1      49.696  11.467  -2.832  1.00  0.00     0.071 A 
ENDROOT
BRANCH   3  12
ATOM     12  C3  UNK     1      46.961  11.414  -8.170  1.00  0.00    -0.028 A 
ATOM     13  C9  UNK     1      47.156  11.706  -9.520  1.00  0.00     0.012 A 
ATOM     14  C13 UNK     1      46.059  11.981 -10.338  1.00  0.00     0.037 A 
ATOM     15  C15 UNK     1      44.771  11.964  -9.806  1.00  0.00     0.065 A 
ATOM     16  C14 UNK     1      44.577  11.672  -8.455  1.00  0.00     0.037 A 
ATOM     17  C10 UNK     1      45.673  11.397  -7.638  1.00  0.00     0.012 A 
BRANCH  15  18
ATOM     18  O5  UNK     1      43.701  12.233 -10.604  1.00  0.00    -0.361 OA
ATOM     19  H12 UNK     1      43.787  13.137 -10.952  1.00  0.00     0.217 HD
ENDBRANCH  15  18
ENDBRANCH   3  12
BRANCH   8  20
ATOM     20  O3  UNK     1      51.844   9.078  -4.551  1.00  0.00    -0.360 OA
ATOM     21  H10 UNK     1      51.846   8.791  -5.479  1.00  0.00     0.217 HD
ENDBRANCH   8  20
BRANCH  11  22
ATOM     22  O4  UNK     1      49.639  12.099  -1.627  1.00  0.00    -0.361 OA
ATOM     23  H11 UNK     1      49.584  11.430  -0.922  1.00  0.00     0.217 HD
ENDBRANCH  11  22
TORSDOF 4
ENDMDL
MODEL 13
REMARK VINA RESULT:      -5.3     11.224     13.143
REMARK  4 active torsions:
REMARK  status: ('A' for Active; 'I' for Inactive)
REMARK    1  A    between atoms: O3_3  and  C7_12 
REMARK    2  A    between atoms: O4_4  and  C12_17 
REMARK    3  A    between atoms: O5_5  and  C15_20 
REMARK    4  A    between atoms: C1_6  and  C3_8 
ROOT
ATOM      1  O1  UNK     1      52.096  11.451  -2.544  1.00  0.00    -0.340 OA
ATOM      2  O2  UNK     1      50.946  11.499   1.393  1.00  0.00    -0.292 OA
ATOM      3  C1  UNK     1      50.856  10.855  -2.135  1.00  0.00     0.169 C 
ATOM      4  C2  UNK     1      50.283  11.567  -0.911  1.00  0.00     0.121 C 
ATOM      5  C4  UNK     1      52.704  11.476  -0.182  1.00  0.00     0.076 A 
ATOM      6  C5  UNK     1      51.281  11.490   0.216  1.00  0.00     0.167 C 
ATOM      7  C6  UNK     1      53.031  11.480  -1.541  1.00  0.00     0.089 A 
ATOM      8  C7  UNK     1      53.710  11.502   0.786  1.00  0.00     0.085 A 
ATOM      9  C8  UNK     1      54.368  11.545  -1.933  1.00  0.00     0.074 A 
ATOM     10  C11 UNK     1      55.047  11.546   0.389  1.00  0.00     0.074 A 
ATOM     11  C12 UNK     1      55.376  11.573  -0.967  1.00  0.00     0.071 A 
ENDROOT
BRANCH   3  12
ATOM     12  C3  UNK     1      49.890  10.911  -3.300  1.00  0.00    -0.028 A 
ATOM     13  C9  UNK     1      48.905  11.897  -3.341  1.00  0.00     0.012 A 
ATOM     14  C13 UNK     1      48.016  11.949  -4.416  1.00  0.00     0.037 A 
ATOM     15  C15 UNK     1      48.112  11.015  -5.447  1.00  0.00     0.065 A 
ATOM     16  C14 UNK     1      49.099  10.028  -5.404  1.00  0.00     0.037 A 
ATOM     17  C10 UNK     1      49.988   9.978  -4.331  1.00  0.00     0.012 A 
BRANCH  15  18
ATOM     18  O5  UNK     1      47.245  11.065  -6.494  1.00  0.00    -0.361 OA
ATOM     19  H12 UNK     1      47.346  10.257  -7.026  1.00  0.00     0.217 HD
ENDBRANCH  15  18
ENDBRANCH   3  12
BRANCH   8  20
ATOM     20  O3  UNK     1      53.447  11.495   2.122  1.00  0.00    -0.360 OA
ATOM     21  H10 UNK     1      54.117  12.021   2.589  1.00  0.00     0.217 HD
ENDBRANCH   8  20
BRANCH  11  22
ATOM     22  O4  UNK     1      56.682  11.623  -1.349  1.00  0.00    -0.361 OA
ATOM     23  H11 UNK     1      57.117  10.791  -1.095  1.00  0.00     0.217 HD
ENDBRANCH  11  22
TORSDOF 4
ENDMDL
MODEL 14
REMARK VINA RESULT:      -5.1     10.506     12.659
REMARK  4 active torsions:
REMARK  status: ('A' for Active; 'I' for Inactive)
REMARK    1  A    between atoms: O3_3  and  C7_12 
REMARK    2  A    between atoms: O4_4  and  C12_17 
REMARK    3  A    between atoms: O5_5  and  C15_20 
REMARK    4  A    between atoms: C1_6  and  C3_8 
ROOT
ATOM      1  O1  UNK     1      47.272  10.673  -7.725  1.00  0.00    -0.340 OA
ATOM      2  O2  UNK     1      50.840   9.393  -9.292  1.00  0.00    -0.292 OA
ATOM      3  C1  UNK     1      48.495  10.833  -6.991  1.00  0.00     0.169 C 
ATOM      4  C2  UNK     1      49.684  10.998  -7.935  1.00  0.00     0.121 C 
ATOM      5  C4  UNK     1      48.498   9.130  -9.161  1.00  0.00     0.076 A 
ATOM      6  C5  UNK     1      49.779   9.785  -8.824  1.00  0.00     0.167 C 
ATOM      7  C6  UNK     1      47.313   9.627  -8.609  1.00  0.00     0.089 A 
ATOM      8  C7  UNK     1      48.465   8.056 -10.054  1.00  0.00     0.085 A 
ATOM      9  C8  UNK     1      46.089   9.069  -8.978  1.00  0.00     0.074 A 
ATOM     10  C11 UNK     1      47.239   7.488 -10.403  1.00  0.00     0.074 A 
ATOM     11  C12 UNK     1      46.053   7.996  -9.871  1.00  0.00     0.071 A 
ENDROOT
BRANCH   3  12
ATOM     12  C3  UNK     1      48.353  12.034  -6.078  1.00  0.00    -0.028 A 
ATOM     13  C9  UNK     1      48.677  13.307  -6.547  1.00  0.00     0.012 A 
ATOM     14  C13 UNK     1      48.544  14.413  -5.707  1.00  0.00     0.037 A 
ATOM     15  C15 UNK     1      48.090  14.245  -4.400  1.00  0.00     0.065 A 
ATOM     16  C14 UNK     1      47.766  12.971  -3.931  1.00  0.00     0.037 A 
ATOM     17  C10 UNK     1      47.897  11.866  -4.772  1.00  0.00     0.012 A 
BRANCH  15  18
ATOM     18  O5  UNK     1      47.961  15.324  -3.580  1.00  0.00    -0.361 OA
ATOM     19  H12 UNK     1      47.395  15.985  -4.014  1.00  0.00     0.217 HD
ENDBRANCH  15  18
ENDBRANCH   3  12
BRANCH   8  20
ATOM     20  O3  UNK     1      49.588   7.531 -10.616  1.00  0.00    -0.360 OA
ATOM     21  H10 UNK     1      50.018   8.202 -11.173  1.00  0.00     0.217 HD
ENDBRANCH   8  20
BRANCH  11  22
ATOM     22  O4  UNK     1      44.859   7.444 -10.221  1.00  0.00    -0.361 OA
ATOM     23  H11 UNK     1      44.800   6.550  -9.840  1.00  0.00     0.217 HD
ENDBRANCH  11  22
TORSDOF 4
ENDMDL
MODEL 15
REMARK VINA RESULT:      -5.1     10.976     13.315
REMARK  4 active torsions:
REMARK  status: ('A' for Active; 'I' for Inactive)
REMARK    1  A    between atoms: O3_3  and  C7_12 
REMARK    2  A    between atoms: O4_4  and  C12_17 
REMARK    3  A    between atoms: O5_5  and  C15_20 
REMARK    4  A    between atoms: C1_6  and  C3_8 
ROOT
ATOM      1  O1  UNK     1      40.724  14.418 -13.828  1.00  0.00    -0.340 OA
ATOM      2  O2  UNK     1      40.542  10.912 -11.706  1.00  0.00    -0.292 OA
ATOM      3  C1  UNK     1      41.247  14.340 -12.493  1.00  0.00     0.169 C 
ATOM      4  C2  UNK     1      41.747  12.931 -12.181  1.00  0.00     0.121 C 
ATOM      5  C4  UNK     1      39.599  12.305 -13.362  1.00  0.00     0.076 A 
ATOM      6  C5  UNK     1      40.607  11.958 -12.339  1.00  0.00     0.167 C 
ATOM      7  C6  UNK     1      39.728  13.507 -14.064  1.00  0.00     0.089 A 
ATOM      8  C7  UNK     1      38.554  11.425 -13.654  1.00  0.00     0.085 A 
ATOM      9  C8  UNK     1      38.828  13.812 -15.086  1.00  0.00     0.074 A 
ATOM     10  C11 UNK     1      37.645  11.746 -14.662  1.00  0.00     0.074 A 
ATOM     11  C12 UNK     1      37.784  12.934 -15.381  1.00  0.00     0.071 A 
ENDROOT
BRANCH   3  12
ATOM     12  C3  UNK     1      42.361  15.357 -12.355  1.00  0.00    -0.028 A 
ATOM     13  C9  UNK     1      42.870  15.990 -13.489  1.00  0.00     0.012 A 
ATOM     14  C13 UNK     1      43.895  16.928 -13.362  1.00  0.00     0.037 A 
ATOM     15  C15 UNK     1      44.411  17.231 -12.103  1.00  0.00     0.065 A 
ATOM     16  C14 UNK     1      43.902  16.597 -10.969  1.00  0.00     0.037 A 
ATOM     17  C10 UNK     1      42.876  15.660 -11.096  1.00  0.00     0.012 A 
BRANCH  15  18
ATOM     18  O5  UNK     1      45.412  18.145 -11.979  1.00  0.00    -0.361 OA
ATOM     19  H12 UNK     1      46.188  17.831 -12.473  1.00  0.00     0.217 HD
ENDBRANCH  15  18
ENDBRANCH   3  12
BRANCH   8  20
ATOM     20  O3  UNK     1      38.380  10.245 -12.996  1.00  0.00    -0.360 OA
ATOM     21  H10 UNK     1      37.791   9.669 -13.512  1.00  0.00     0.217 HD
ENDBRANCH   8  20
BRANCH  11  22
ATOM     22  O4  UNK     1      36.899  13.238 -16.370  1.00  0.00    -0.361 OA
ATOM     23  H11 UNK     1      36.012  13.334 -15.981  1.00  0.00     0.217 HD
ENDBRANCH  11  22
TORSDOF 4
ENDMDL
MODEL 16
REMARK VINA RESULT:      -5.1     10.195     11.893
REMARK  4 active torsions:
REMARK  status: ('A' for Active; 'I' for Inactive)
REMARK    1  A    between atoms: O3_3  and  C7_12 
REMARK    2  A    between atoms: O4_4  and  C12_17 
REMARK    3  A    between atoms: O5_5  and  C15_20 
REMARK    4  A    between atoms: C1_6  and  C3_8 
ROOT
ATOM      1  O1  UNK     1      47.954  10.969  -6.500  1.00  0.00    -0.340 OA
ATOM      2  O2  UNK     1      50.713  13.952  -7.064  1.00  0.00    -0.292 OA
ATOM      3  C1  UNK     1      47.646  12.108  -7.319  1.00  0.00     0.169 C 
ATOM      4  C2  UNK     1      48.906  12.666  -7.978  1.00  0.00     0.121 C 
ATOM      5  C4  UNK     1      49.852  12.254  -5.668  1.00  0.00     0.076 A 
ATOM      6  C5  UNK     1      49.889  13.060  -6.906  1.00  0.00     0.167 C 
ATOM      7  C6  UNK     1      48.899  11.239  -5.545  1.00  0.00     0.089 A 
ATOM      8  C7  UNK     1      50.784  12.475  -4.651  1.00  0.00     0.085 A 
ATOM      9  C8  UNK     1      48.901  10.419  -4.416  1.00  0.00     0.074 A 
ATOM     10  C11 UNK     1      50.767  11.666  -3.515  1.00  0.00     0.074 A 
ATOM     11  C12 UNK     1      49.832  10.637  -3.399  1.00  0.00     0.071 A 
ENDROOT
BRANCH   3  12
ATOM     12  C3  UNK     1      46.626  11.689  -8.358  1.00  0.00    -0.028 A 
ATOM     13  C9  UNK     1      46.984  11.641  -9.705  1.00  0.00     0.012 A 
ATOM     14  C13 UNK     1      46.045  11.255 -10.661  1.00  0.00     0.037 A 
ATOM     15  C15 UNK     1      44.749  10.918 -10.271  1.00  0.00     0.065 A 
ATOM     16  C14 UNK     1      44.392  10.968  -8.923  1.00  0.00     0.037 A 
ATOM     17  C10 UNK     1      45.332  11.352  -7.966  1.00  0.00     0.012 A 
BRANCH  15  18
ATOM     18  O5  UNK     1      43.833  10.542 -11.204  1.00  0.00    -0.361 OA
ATOM     19  H12 UNK     1      42.948  10.807 -10.901  1.00  0.00     0.217 HD
ENDBRANCH  15  18
ENDBRANCH   3  12
BRANCH   8  20
ATOM     20  O3  UNK     1      51.729  13.453  -4.719  1.00  0.00    -0.360 OA
ATOM     21  H10 UNK     1      52.154  13.435  -5.592  1.00  0.00     0.217 HD
ENDBRANCH   8  20
BRANCH  11  22
ATOM     22  O4  UNK     1      49.826   9.845  -2.291  1.00  0.00    -0.361 OA
ATOM     23  H11 UNK     1      50.741   9.589  -2.081  1.00  0.00     0.217 HD
ENDBRANCH  11  22
TORSDOF 4
ENDMDL
MODEL 17
REMARK VINA RESULT:      -5.1     10.574     12.855
REMARK  4 active torsions:
REMARK  status: ('A' for Active; 'I' for Inactive)
REMARK    1  A    between atoms: O3_3  and  C7_12 
REMARK    2  A    between atoms: O4_4  and  C12_17 
REMARK    3  A    between atoms: O5_5  and  C15_20 
REMARK    4  A    between atoms: C1_6  and  C3_8 
ROOT
ATOM      1  O1  UNK     1      44.569  12.864 -10.610  1.00  0.00    -0.340 OA
ATOM      2  O2  UNK     1      41.294  11.269 -12.495  1.00  0.00    -0.292 OA
ATOM      3  C1  UNK     1      44.157  13.346 -11.899  1.00  0.00     0.169 C 
ATOM      4  C2  UNK     1      42.647  13.205 -12.079  1.00  0.00     0.121 C 
ATOM      5  C4  UNK     1      43.099  10.960 -11.005  1.00  0.00     0.076 A 
ATOM      6  C5  UNK     1      42.267  11.755 -11.932  1.00  0.00     0.167 C 
ATOM      7  C6  UNK     1      44.191  11.567 -10.379  1.00  0.00     0.089 A 
ATOM      8  C7  UNK     1      42.774   9.630 -10.725  1.00  0.00     0.085 A 
ATOM      9  C8  UNK     1      44.940  10.853  -9.443  1.00  0.00     0.074 A 
ATOM     10  C11 UNK     1      43.540   8.914  -9.803  1.00  0.00     0.074 A 
ATOM     11  C12 UNK     1      44.617   9.525  -9.160  1.00  0.00     0.071 A 
ENDROOT
BRANCH   3  12
ATOM     12  C3  UNK     1      44.591  14.791 -12.031  1.00  0.00    -0.028 A 
ATOM     13  C9  UNK     1      43.755  15.812 -11.579  1.00  0.00     0.012 A 
ATOM     14  C13 UNK     1      44.154  17.144 -11.700  1.00  0.00     0.037 A 
ATOM     15  C15 UNK     1      45.388  17.453 -12.273  1.00  0.00     0.065 A 
ATOM     16  C14 UNK     1      46.223  16.430 -12.725  1.00  0.00     0.037 A 
ATOM     17  C10 UNK     1      45.824  15.099 -12.602  1.00  0.00     0.012 A 
BRANCH  15  18
ATOM     18  O5  UNK     1      45.777  18.751 -12.392  1.00  0.00    -0.361 OA
ATOM     19  H12 UNK     1      46.468  18.935 -11.733  1.00  0.00     0.217 HD
ENDBRANCH  15  18
ENDBRANCH   3  12
BRANCH   8  20
ATOM     20  O3  UNK     1      41.725   8.989 -11.310  1.00  0.00    -0.360 OA
ATOM     21  H10 UNK     1      41.898   8.880 -12.259  1.00  0.00     0.217 HD
ENDBRANCH   8  20
BRANCH  11  22
ATOM     22  O4  UNK     1      45.355   8.824  -8.256  1.00  0.00    -0.361 OA
ATOM     23  H11 UNK     1      44.780   8.557  -7.518  1.00  0.00     0.217 HD
ENDBRANCH  11  22
TORSDOF 4
ENDMDL
