MODEL 1
REMARK VINA RESULT:      -7.4      0.000      0.000
REMARK  4 active torsions:
REMARK  status: ('A' for Active; 'I' for Inactive)
REMARK    1  A    between atoms: O3_3  and  C7_12 
REMARK    2  A    between atoms: O4_4  and  C12_17 
REMARK    3  A    between atoms: O5_5  and  C15_20 
REMARK    4  A    between atoms: C1_6  and  C3_8 
ROOT
ATOM      1  O1  UNK     1      39.853  15.309   0.114  1.00  0.00    -0.340 OA
ATOM      2  O2  UNK     1      41.468  16.109  -3.571  1.00  0.00    -0.292 OA
ATOM      3  C1  UNK     1      40.125  14.247  -0.814  1.00  0.00     0.169 C 
ATOM      4  C2  UNK     1      41.307  14.597  -1.715  1.00  0.00     0.121 C 
ATOM      5  C4  UNK     1      40.133  16.837  -1.765  1.00  0.00     0.076 A 
ATOM      6  C5  UNK     1      40.994  15.864  -2.468  1.00  0.00     0.167 C 
ATOM      7  C6  UNK     1      39.628  16.512  -0.502  1.00  0.00     0.089 A 
ATOM      8  C7  UNK     1      39.860  18.083  -2.335  1.00  0.00     0.085 A 
ATOM      9  C8  UNK     1      38.878  17.450   0.207  1.00  0.00     0.074 A 
ATOM     10  C11 UNK     1      39.091  19.010  -1.629  1.00  0.00     0.074 A 
ATOM     11  C12 UNK     1      38.605  18.697  -0.359  1.00  0.00     0.071 A 
ENDROOT
BRANCH   3  12
ATOM     12  C3  UNK     1      40.394  12.981  -0.028  1.00  0.00    -0.028 A 
ATOM     13  C9  UNK     1      40.779  11.818  -0.693  1.00  0.00     0.012 A 
ATOM     14  C13 UNK     1      41.027  10.651   0.031  1.00  0.00     0.037 A 
ATOM     15  C15 UNK     1      40.889  10.648   1.419  1.00  0.00     0.065 A 
ATOM     16  C14 UNK     1      40.503  11.813   2.083  1.00  0.00     0.037 A 
ATOM     17  C10 UNK     1      40.256  12.980   1.359  1.00  0.00     0.012 A 
BRANCH  15  18
ATOM     18  O5  UNK     1      41.131   9.511   2.125  1.00  0.00    -0.361 OA
ATOM     19  H12 UNK     1      41.066   9.709   3.075  1.00  0.00     0.217 HD
ENDBRANCH  15  18
ENDBRANCH   3  12
BRANCH   8  20
ATOM     20  O3  UNK     1      40.322  18.449  -3.563  1.00  0.00    -0.360 OA
ATOM     21  H10 UNK     1      39.765  18.050  -4.252  1.00  0.00     0.217 HD
ENDBRANCH   8  20
BRANCH  11  22
ATOM     22  O4  UNK     1      37.862  19.607   0.328  1.00  0.00    -0.361 OA
ATOM     23  H11 UNK     1      37.136  19.916  -0.241  1.00  0.00     0.217 HD
ENDBRANCH  11  22
TORSDOF 4
ENDMDL
MODEL 2
REMARK VINA RESULT:      -6.9      1.339      3.012
REMARK  4 active torsions:
REMARK  status: ('A' for Active; 'I' for Inactive)
REMARK    1  A    between atoms: O3_3  and  C7_12 
REMARK    2  A    between atoms: O4_4  and  C12_17 
REMARK    3  A    between atoms: O5_5  and  C15_20 
REMARK    4  A    between atoms: C1_6  and  C3_8 
ROOT
ATOM      1  O1  UNK     1      40.401  15.139  -1.958  1.00  0.00    -0.340 OA
ATOM      2  O2  UNK     1      39.006  18.156   0.445  1.00  0.00    -0.292 OA
ATOM      3  C1  UNK     1      40.551  15.070  -0.532  1.00  0.00     0.169 C 
ATOM      4  C2  UNK     1      39.416  15.808   0.175  1.00  0.00     0.121 C 
ATOM      5  C4  UNK     1      39.875  17.500  -1.649  1.00  0.00     0.076 A 
ATOM      6  C5  UNK     1      39.416  17.249  -0.267  1.00  0.00     0.167 C 
ATOM      7  C6  UNK     1      40.321  16.426  -2.424  1.00  0.00     0.089 A 
ATOM      8  C7  UNK     1      39.824  18.787  -2.189  1.00  0.00     0.085 A 
ATOM      9  C8  UNK     1      40.685  16.635  -3.755  1.00  0.00     0.074 A 
ATOM     10  C11 UNK     1      40.209  18.994  -3.515  1.00  0.00     0.074 A 
ATOM     11  C12 UNK     1      40.633  17.919  -4.298  1.00  0.00     0.071 A 
ENDROOT
BRANCH   3  12
ATOM     12  C3  UNK     1      40.589  13.611  -0.125  1.00  0.00    -0.028 A 
ATOM     13  C9  UNK     1      40.249  13.243   1.176  1.00  0.00     0.012 A 
ATOM     14  C13 UNK     1      40.285  11.899   1.551  1.00  0.00     0.037 A 
ATOM     15  C15 UNK     1      40.660  10.926   0.625  1.00  0.00     0.065 A 
ATOM     16  C14 UNK     1      41.000  11.296  -0.677  1.00  0.00     0.037 A 
ATOM     17  C10 UNK     1      40.964  12.639  -1.051  1.00  0.00     0.012 A 
BRANCH  15  18
ATOM     18  O5  UNK     1      40.695   9.615   0.991  1.00  0.00    -0.361 OA
ATOM     19  H12 UNK     1      40.657   9.558   1.961  1.00  0.00     0.217 HD
ENDBRANCH  15  18
ENDBRANCH   3  12
BRANCH   8  20
ATOM     20  O3  UNK     1      39.403  19.869  -1.477  1.00  0.00    -0.360 OA
ATOM     21  H10 UNK     1      39.288  20.627  -2.074  1.00  0.00     0.217 HD
ENDBRANCH   8  20
BRANCH  11  22
ATOM     22  O4  UNK     1      41.000  18.125  -5.593  1.00  0.00    -0.361 OA
ATOM     23  H11 UNK     1      41.897  17.773  -5.726  1.00  0.00     0.217 HD
ENDBRANCH  11  22
TORSDOF 4
ENDMDL
MODEL 3
REMARK VINA RESULT:      -6.1      1.611      6.436
REMARK  4 active torsions:
REMARK  status: ('A' for Active; 'I' for Inactive)
REMARK    1  A    between atoms: O3_3  and  C7_12 
REMARK    2  A    between atoms: O4_4  and  C12_17 
REMARK    3  A    between atoms: O5_5  and  C15_20 
REMARK    4  A    between atoms: C1_6  and  C3_8 
ROOT
ATOM      1  O1  UNK     1      39.369  15.076  -0.313  1.00  0.00    -0.340 OA
ATOM      2  O2  UNK     1      42.517  14.416  -2.859  1.00  0.00    -0.292 OA
ATOM      3  C1  UNK     1      40.291  16.131  -0.628  1.00  0.00     0.169 C 
ATOM      4  C2  UNK     1      40.871  15.952  -2.030  1.00  0.00     0.121 C 
ATOM      5  C4  UNK     1      41.010  13.544  -1.264  1.00  0.00     0.076 A 
ATOM      6  C5  UNK     1      41.573  14.621  -2.105  1.00  0.00     0.167 C 
ATOM      7  C6  UNK     1      39.924  13.829  -0.431  1.00  0.00     0.089 A 
ATOM      8  C7  UNK     1      41.527  12.248  -1.332  1.00  0.00     0.085 A 
ATOM      9  C8  UNK     1      39.332  12.806   0.310  1.00  0.00     0.074 A 
ATOM     10  C11 UNK     1      40.944  11.234  -0.571  1.00  0.00     0.074 A 
ATOM     11  C12 UNK     1      39.845  11.510   0.244  1.00  0.00     0.071 A 
ENDROOT
BRANCH   3  12
ATOM     12  C3  UNK     1      39.566  17.455  -0.502  1.00  0.00    -0.028 A 
ATOM     13  C9  UNK     1      39.687  18.412  -1.509  1.00  0.00     0.012 A 
ATOM     14  C13 UNK     1      39.018  19.632  -1.393  1.00  0.00     0.037 A 
ATOM     15  C15 UNK     1      38.231  19.893  -0.272  1.00  0.00     0.065 A 
ATOM     16  C14 UNK     1      38.112  18.934   0.734  1.00  0.00     0.037 A 
ATOM     17  C10 UNK     1      38.779  17.714   0.618  1.00  0.00     0.012 A 
BRANCH  15  18
ATOM     18  O5  UNK     1      37.580  21.082  -0.159  1.00  0.00    -0.361 OA
ATOM     19  H12 UNK     1      36.796  20.960   0.403  1.00  0.00     0.217 HD
ENDBRANCH  15  18
ENDBRANCH   3  12
BRANCH   8  20
ATOM     20  O3  UNK     1      42.586  11.918  -2.122  1.00  0.00    -0.360 OA
ATOM     21  H10 UNK     1      43.267  12.608  -2.058  1.00  0.00     0.217 HD
ENDBRANCH   8  20
BRANCH  11  22
ATOM     22  O4  UNK     1      39.276  10.514   0.977  1.00  0.00    -0.361 OA
ATOM     23  H11 UNK     1      38.517  10.878   1.466  1.00  0.00     0.217 HD
ENDBRANCH  11  22
TORSDOF 4
ENDMDL
MODEL 4
REMARK VINA RESULT:      -5.6     10.139     12.884
REMARK  4 active torsions:
REMARK  status: ('A' for Active; 'I' for Inactive)
REMARK    1  A    between atoms: O3_3  and  C7_12 
REMARK    2  A    between atoms: O4_4  and  C12_17 
REMARK    3  A    between atoms: O5_5  and  C15_20 
REMARK    4  A    between atoms: C1_6  and  C3_8 
ROOT
ATOM      1  O1  UNK     1      48.342   9.847  -6.827  1.00  0.00    -0.340 OA
ATOM      2  O2  UNK     1      45.809  10.060 -10.046  1.00  0.00    -0.292 OA
ATOM      3  C1  UNK     1      48.001  11.115  -7.409  1.00  0.00     0.169 C 
ATOM      4  C2  UNK     1      46.603  11.077  -8.023  1.00  0.00     0.121 C 
ATOM      5  C4  UNK     1      47.426   8.830  -8.844  1.00  0.00     0.076 A 
ATOM      6  C5  UNK     1      46.558  10.003  -9.079  1.00  0.00     0.167 C 
ATOM      7  C6  UNK     1      48.253   8.809  -7.717  1.00  0.00     0.089 A 
ATOM      8  C7  UNK     1      47.388   7.736  -9.712  1.00  0.00     0.085 A 
ATOM      9  C8  UNK     1      49.020   7.677  -7.440  1.00  0.00     0.074 A 
ATOM     10  C11 UNK     1      48.173   6.614  -9.441  1.00  0.00     0.074 A 
ATOM     11  C12 UNK     1      48.983   6.582  -8.305  1.00  0.00     0.071 A 
ENDROOT
BRANCH   3  12
ATOM     12  C3  UNK     1      48.096  12.177  -6.334  1.00  0.00    -0.028 A 
ATOM     13  C9  UNK     1      48.569  13.450  -6.652  1.00  0.00     0.012 A 
ATOM     14  C13 UNK     1      48.656  14.428  -5.662  1.00  0.00     0.037 A 
ATOM     15  C15 UNK     1      48.271  14.134  -4.354  1.00  0.00     0.065 A 
ATOM     16  C14 UNK     1      47.797  12.860  -4.037  1.00  0.00     0.037 A 
ATOM     17  C10 UNK     1      47.709  11.882  -5.027  1.00  0.00     0.012 A 
BRANCH  15  18
ATOM     18  O5  UNK     1      48.356  15.089  -3.388  1.00  0.00    -0.361 OA
ATOM     19  H12 UNK     1      48.130  14.690  -2.530  1.00  0.00     0.217 HD
ENDBRANCH  15  18
ENDBRANCH   3  12
BRANCH   8  20
ATOM     20  O3  UNK     1      46.604   7.705 -10.825  1.00  0.00    -0.360 OA
ATOM     21  H10 UNK     1      46.656   8.561 -11.283  1.00  0.00     0.217 HD
ENDBRANCH   8  20
BRANCH  11  22
ATOM     22  O4  UNK     1      49.741   5.482  -8.041  1.00  0.00    -0.361 OA
ATOM     23  H11 UNK     1      50.219   5.622  -7.205  1.00  0.00     0.217 HD
ENDBRANCH  11  22
TORSDOF 4
ENDMDL
MODEL 5
REMARK VINA RESULT:      -5.6     10.139     12.899
REMARK  4 active torsions:
REMARK  status: ('A' for Active; 'I' for Inactive)
REMARK    1  A    between atoms: O3_3  and  C7_12 
REMARK    2  A    between atoms: O4_4  and  C12_17 
REMARK    3  A    between atoms: O5_5  and  C15_20 
REMARK    4  A    between atoms: C1_6  and  C3_8 
ROOT
ATOM      1  O1  UNK     1      48.342   9.848  -6.828  1.00  0.00    -0.340 OA
ATOM      2  O2  UNK     1      45.808  10.059 -10.046  1.00  0.00    -0.292 OA
ATOM      3  C1  UNK     1      48.000  11.115  -7.410  1.00  0.00     0.169 C 
ATOM      4  C2  UNK     1      46.602  11.077  -8.024  1.00  0.00     0.121 C 
ATOM      5  C4  UNK     1      47.425   8.829  -8.844  1.00  0.00     0.076 A 
ATOM      6  C5  UNK     1      46.557  10.002  -9.080  1.00  0.00     0.167 C 
ATOM      7  C6  UNK     1      48.253   8.810  -7.718  1.00  0.00     0.089 A 
ATOM      8  C7  UNK     1      47.388   7.735  -9.712  1.00  0.00     0.085 A 
ATOM      9  C8  UNK     1      49.020   7.678  -7.441  1.00  0.00     0.074 A 
ATOM     10  C11 UNK     1      48.173   6.614  -9.441  1.00  0.00     0.074 A 
ATOM     11  C12 UNK     1      48.984   6.582  -8.305  1.00  0.00     0.071 A 
ENDROOT
BRANCH   3  12
ATOM     12  C3  UNK     1      48.095  12.178  -6.335  1.00  0.00    -0.028 A 
ATOM     13  C9  UNK     1      47.709  11.882  -5.028  1.00  0.00     0.012 A 
ATOM     14  C13 UNK     1      47.797  12.861  -4.037  1.00  0.00     0.037 A 
ATOM     15  C15 UNK     1      48.270  14.133  -4.354  1.00  0.00     0.065 A 
ATOM     16  C14 UNK     1      48.656  14.428  -5.663  1.00  0.00     0.037 A 
ATOM     17  C10 UNK     1      48.569  13.449  -6.652  1.00  0.00     0.012 A 
BRANCH  15  18
ATOM     18  O5  UNK     1      48.356  15.088  -3.388  1.00  0.00    -0.361 OA
ATOM     19  H12 UNK     1      49.262  15.101  -3.037  1.00  0.00     0.217 HD
ENDBRANCH  15  18
ENDBRANCH   3  12
BRANCH   8  20
ATOM     20  O3  UNK     1      46.604   7.705 -10.825  1.00  0.00    -0.360 OA
ATOM     21  H10 UNK     1      46.020   8.481 -10.834  1.00  0.00     0.217 HD
ENDBRANCH   8  20
BRANCH  11  22
ATOM     22  O4  UNK     1      49.742   5.483  -8.041  1.00  0.00    -0.361 OA
ATOM     23  H11 UNK     1      49.674   4.866  -8.790  1.00  0.00     0.217 HD
ENDBRANCH  11  22
TORSDOF 4
ENDMDL
MODEL 6
REMARK VINA RESULT:      -5.5      9.664     12.000
REMARK  4 active torsions:
REMARK  status: ('A' for Active; 'I' for Inactive)
REMARK    1  A    between atoms: O3_3  and  C7_12 
REMARK    2  A    between atoms: O4_4  and  C12_17 
REMARK    3  A    between atoms: O5_5  and  C15_20 
REMARK    4  A    between atoms: C1_6  and  C3_8 
ROOT
ATOM      1  O1  UNK     1      46.116  11.121  -7.768  1.00  0.00    -0.340 OA
ATOM      2  O2  UNK     1      48.785  10.156 -10.729  1.00  0.00    -0.292 OA
ATOM      3  C1  UNK     1      47.530  11.149  -7.519  1.00  0.00     0.169 C 
ATOM      4  C2  UNK     1      48.304  11.486  -8.791  1.00  0.00     0.121 C 
ATOM      5  C4  UNK     1      46.637   9.867  -9.793  1.00  0.00     0.076 A 
ATOM      6  C5  UNK     1      47.992  10.454  -9.845  1.00  0.00     0.167 C 
ATOM      7  C6  UNK     1      45.767  10.252  -8.768  1.00  0.00     0.089 A 
ATOM      8  C7  UNK     1      46.214   8.972 -10.779  1.00  0.00     0.085 A 
ATOM      9  C8  UNK     1      44.459   9.766  -8.750  1.00  0.00     0.074 A 
ATOM     10  C11 UNK     1      44.912   8.473 -10.744  1.00  0.00     0.074 A 
ATOM     11  C12 UNK     1      44.034   8.873  -9.735  1.00  0.00     0.071 A 
ENDROOT
BRANCH   3  12
ATOM     12  C3  UNK     1      47.804  12.164  -6.428  1.00  0.00    -0.028 A 
ATOM     13  C9  UNK     1      48.283  13.431  -6.762  1.00  0.00     0.012 A 
ATOM     14  C13 UNK     1      48.535  14.366  -5.757  1.00  0.00     0.037 A 
ATOM     15  C15 UNK     1      48.309  14.034  -4.422  1.00  0.00     0.065 A 
ATOM     16  C14 UNK     1      47.829  12.766  -4.090  1.00  0.00     0.037 A 
ATOM     17  C10 UNK     1      47.576  11.832  -5.094  1.00  0.00     0.012 A 
BRANCH  15  18
ATOM     18  O5  UNK     1      48.555  14.946  -3.442  1.00  0.00    -0.361 OA
ATOM     19  H12 UNK     1      48.399  14.530  -2.577  1.00  0.00     0.217 HD
ENDBRANCH  15  18
ENDBRANCH   3  12
BRANCH   8  20
ATOM     20  O3  UNK     1      47.022   8.561 -11.795  1.00  0.00    -0.360 OA
ATOM     21  H10 UNK     1      46.528   7.968 -12.385  1.00  0.00     0.217 HD
ENDBRANCH   8  20
BRANCH  11  22
ATOM     22  O4  UNK     1      42.761   8.389  -9.710  1.00  0.00    -0.361 OA
ATOM     23  H11 UNK     1      42.790   7.421  -9.798  1.00  0.00     0.217 HD
ENDBRANCH  11  22
TORSDOF 4
ENDMDL
MODEL 7
REMARK VINA RESULT:      -5.5      9.683     12.023
REMARK  4 active torsions:
REMARK  status: ('A' for Active; 'I' for Inactive)
REMARK    1  A    between atoms: O3_3  and  C7_12 
REMARK    2  A    between atoms: O4_4  and  C12_17 
REMARK    3  A    between atoms: O5_5  and  C15_20 
REMARK    4  A    between atoms: C1_6  and  C3_8 
ROOT
ATOM      1  O1  UNK     1      46.176  11.133  -7.771  1.00  0.00    -0.340 OA
ATOM      2  O2  UNK     1      48.638  10.675 -11.021  1.00  0.00    -0.292 OA
ATOM      3  C1  UNK     1      47.598  11.292  -7.643  1.00  0.00     0.169 C 
ATOM      4  C2  UNK     1      48.212  11.801  -8.946  1.00  0.00     0.121 C 
ATOM      5  C4  UNK     1      46.626  10.093  -9.930  1.00  0.00     0.076 A 
ATOM      6  C5  UNK     1      47.906  10.822 -10.050  1.00  0.00     0.167 C 
ATOM      7  C6  UNK     1      45.823  10.307  -8.807  1.00  0.00     0.089 A 
ATOM      8  C7  UNK     1      46.203   9.233 -10.947  1.00  0.00     0.085 A 
ATOM      9  C8  UNK     1      44.577   9.686  -8.716  1.00  0.00     0.074 A 
ATOM     10  C11 UNK     1      44.965   8.598 -10.841  1.00  0.00     0.074 A 
ATOM     11  C12 UNK     1      44.151   8.828  -9.731  1.00  0.00     0.071 A 
ENDROOT
BRANCH   3  12
ATOM     12  C3  UNK     1      47.872  12.248  -6.501  1.00  0.00    -0.028 A 
ATOM     13  C9  UNK     1      47.555  11.878  -5.194  1.00  0.00     0.012 A 
ATOM     14  C13 UNK     1      47.808  12.759  -4.141  1.00  0.00     0.037 A 
ATOM     15  C15 UNK     1      48.376  14.006  -4.396  1.00  0.00     0.065 A 
ATOM     16  C14 UNK     1      48.692  14.375  -5.704  1.00  0.00     0.037 A 
ATOM     17  C10 UNK     1      48.440  13.494  -6.756  1.00  0.00     0.012 A 
BRANCH  15  18
ATOM     18  O5  UNK     1      48.622  14.865  -3.369  1.00  0.00    -0.361 OA
ATOM     19  H12 UNK     1      48.017  15.623  -3.440  1.00  0.00     0.217 HD
ENDBRANCH  15  18
ENDBRANCH   3  12
BRANCH   8  20
ATOM     20  O3  UNK     1      46.949   8.985 -12.060  1.00  0.00    -0.360 OA
ATOM     21  H10 UNK     1      47.120   9.819 -12.529  1.00  0.00     0.217 HD
ENDBRANCH   8  20
BRANCH  11  22
ATOM     22  O4  UNK     1      42.940   8.212  -9.637  1.00  0.00    -0.361 OA
ATOM     23  H11 UNK     1      42.583   8.353  -8.743  1.00  0.00     0.217 HD
ENDBRANCH  11  22
TORSDOF 4
ENDMDL
MODEL 8
REMARK VINA RESULT:      -5.5     10.033     11.272
REMARK  4 active torsions:
REMARK  status: ('A' for Active; 'I' for Inactive)
REMARK    1  A    between atoms: O3_3  and  C7_12 
REMARK    2  A    between atoms: O4_4  and  C12_17 
REMARK    3  A    between atoms: O5_5  and  C15_20 
REMARK    4  A    between atoms: C1_6  and  C3_8 
ROOT
ATOM      1  O1  UNK     1      46.348  11.335  -7.259  1.00  0.00    -0.340 OA
ATOM      2  O2  UNK     1      48.530  12.096 -10.648  1.00  0.00    -0.292 OA
ATOM      3  C1  UNK     1      47.774  11.167  -7.266  1.00  0.00     0.169 C 
ATOM      4  C2  UNK     1      48.434  12.130  -8.251  1.00  0.00     0.121 C 
ATOM      5  C4  UNK     1      46.483  11.411  -9.692  1.00  0.00     0.076 A 
ATOM      6  C5  UNK     1      47.884  11.876  -9.631  1.00  0.00     0.167 C 
ATOM      7  C6  UNK     1      45.787  11.187  -8.501  1.00  0.00     0.089 A 
ATOM      8  C7  UNK     1      45.848  11.237 -10.924  1.00  0.00     0.085 A 
ATOM      9  C8  UNK     1      44.441  10.823  -8.542  1.00  0.00     0.074 A 
ATOM     10  C11 UNK     1      44.507  10.851 -10.959  1.00  0.00     0.074 A 
ATOM     11  C12 UNK     1      43.803  10.650  -9.771  1.00  0.00     0.071 A 
ENDROOT
BRANCH   3  12
ATOM     12  C3  UNK     1      48.289  11.388  -5.859  1.00  0.00    -0.028 A 
ATOM     13  C9  UNK     1      48.071  12.609  -5.221  1.00  0.00     0.012 A 
ATOM     14  C13 UNK     1      48.546  12.812  -3.925  1.00  0.00     0.037 A 
ATOM     15  C15 UNK     1      49.237  11.795  -3.268  1.00  0.00     0.065 A 
ATOM     16  C14 UNK     1      49.455  10.573  -3.907  1.00  0.00     0.037 A 
ATOM     17  C10 UNK     1      48.980  10.370  -5.202  1.00  0.00     0.012 A 
BRANCH  15  18
ATOM     18  O5  UNK     1      49.700  11.993  -2.003  1.00  0.00    -0.361 OA
ATOM     19  H12 UNK     1      50.478  11.427  -1.860  1.00  0.00     0.217 HD
ENDBRANCH  15  18
ENDBRANCH   3  12
BRANCH   8  20
ATOM     20  O3  UNK     1      46.480  11.436 -12.114  1.00  0.00    -0.360 OA
ATOM     21  H10 UNK     1      46.378  12.363 -12.386  1.00  0.00     0.217 HD
ENDBRANCH   8  20
BRANCH  11  22
ATOM     22  O4  UNK     1      42.493  10.281  -9.811  1.00  0.00    -0.361 OA
ATOM     23  H11 UNK     1      41.963  11.034 -10.127  1.00  0.00     0.217 HD
ENDBRANCH  11  22
TORSDOF 4
ENDMDL
MODEL 9
REMARK VINA RESULT:      -5.5     10.033     11.977
REMARK  4 active torsions:
REMARK  status: ('A' for Active; 'I' for Inactive)
REMARK    1  A    between atoms: O3_3  and  C7_12 
REMARK    2  A    between atoms: O4_4  and  C12_17 
REMARK    3  A    between atoms: O5_5  and  C15_20 
REMARK    4  A    between atoms: C1_6  and  C3_8 
ROOT
ATOM      1  O1  UNK     1      46.189  11.435  -7.893  1.00  0.00    -0.340 OA
ATOM      2  O2  UNK     1      48.217   8.196  -9.386  1.00  0.00    -0.292 OA
ATOM      3  C1  UNK     1      47.383  10.958  -7.254  1.00  0.00     0.169 C 
ATOM      4  C2  UNK     1      48.328  10.315  -8.266  1.00  0.00     0.121 C 
ATOM      5  C4  UNK     1      46.159   9.319  -9.105  1.00  0.00     0.076 A 
ATOM      6  C5  UNK     1      47.620   9.169  -8.942  1.00  0.00     0.167 C 
ATOM      7  C6  UNK     1      45.530  10.456  -8.590  1.00  0.00     0.089 A 
ATOM      8  C7  UNK     1      45.422   8.359  -9.801  1.00  0.00     0.085 A 
ATOM      9  C8  UNK     1      44.164  10.650  -8.803  1.00  0.00     0.074 A 
ATOM     10  C11 UNK     1      44.053   8.547  -9.993  1.00  0.00     0.074 A 
ATOM     11  C12 UNK     1      43.426   9.692  -9.500  1.00  0.00     0.071 A 
ENDROOT
BRANCH   3  12
ATOM     12  C3  UNK     1      48.048  12.124  -6.550  1.00  0.00    -0.028 A 
ATOM     13  C9  UNK     1      48.957  12.926  -7.240  1.00  0.00     0.012 A 
ATOM     14  C13 UNK     1      49.569  14.000  -6.592  1.00  0.00     0.037 A 
ATOM     15  C15 UNK     1      49.272  14.270  -5.257  1.00  0.00     0.065 A 
ATOM     16  C14 UNK     1      48.362  13.466  -4.568  1.00  0.00     0.037 A 
ATOM     17  C10 UNK     1      47.750  12.394  -5.216  1.00  0.00     0.012 A 
BRANCH  15  18
ATOM     18  O5  UNK     1      49.869  15.317  -4.625  1.00  0.00    -0.361 OA
ATOM     19  H12 UNK     1      50.795  15.375  -4.917  1.00  0.00     0.217 HD
ENDBRANCH  15  18
ENDBRANCH   3  12
BRANCH   8  20
ATOM     20  O3  UNK     1      45.984   7.231 -10.319  1.00  0.00    -0.360 OA
ATOM     21  H10 UNK     1      45.892   7.236 -11.286  1.00  0.00     0.217 HD
ENDBRANCH   8  20
BRANCH  11  22
ATOM     22  O4  UNK     1      42.091   9.875  -9.697  1.00  0.00    -0.361 OA
ATOM     23  H11 UNK     1      41.817  10.698  -9.255  1.00  0.00     0.217 HD
ENDBRANCH  11  22
TORSDOF 4
ENDMDL
MODEL 10
REMARK VINA RESULT:      -5.4     10.036     11.249
REMARK  4 active torsions:
REMARK  status: ('A' for Active; 'I' for Inactive)
REMARK    1  A    between atoms: O3_3  and  C7_12 
REMARK    2  A    between atoms: O4_4  and  C12_17 
REMARK    3  A    between atoms: O5_5  and  C15_20 
REMARK    4  A    between atoms: C1_6  and  C3_8 
ROOT
ATOM      1  O1  UNK     1      46.368  11.335  -7.250  1.00  0.00    -0.340 OA
ATOM      2  O2  UNK     1      48.560  12.107 -10.630  1.00  0.00    -0.292 OA
ATOM      3  C1  UNK     1      47.794  11.168  -7.253  1.00  0.00     0.169 C 
ATOM      4  C2  UNK     1      48.456  12.134  -8.233  1.00  0.00     0.121 C 
ATOM      5  C4  UNK     1      46.510  11.418  -9.683  1.00  0.00     0.076 A 
ATOM      6  C5  UNK     1      47.911  11.884  -9.616  1.00  0.00     0.167 C 
ATOM      7  C6  UNK     1      45.811  11.191  -8.494  1.00  0.00     0.089 A 
ATOM      8  C7  UNK     1      45.879  11.247 -10.917  1.00  0.00     0.085 A 
ATOM      9  C8  UNK     1      44.465  10.825  -8.540  1.00  0.00     0.074 A 
ATOM     10  C11 UNK     1      44.539  10.861 -10.958  1.00  0.00     0.074 A 
ATOM     11  C12 UNK     1      43.831  10.656  -9.772  1.00  0.00     0.071 A 
ENDROOT
BRANCH   3  12
ATOM     12  C3  UNK     1      48.305  11.385  -5.844  1.00  0.00    -0.028 A 
ATOM     13  C9  UNK     1      48.996  10.365  -5.190  1.00  0.00     0.012 A 
ATOM     14  C13 UNK     1      49.467  10.565  -3.892  1.00  0.00     0.037 A 
ATOM     15  C15 UNK     1      49.246  11.783  -3.249  1.00  0.00     0.065 A 
ATOM     16  C14 UNK     1      48.554  12.802  -3.905  1.00  0.00     0.037 A 
ATOM     17  C10 UNK     1      48.085  12.603  -5.203  1.00  0.00     0.012 A 
BRANCH  15  18
ATOM     18  O5  UNK     1      49.705  11.978  -1.983  1.00  0.00    -0.361 OA
ATOM     19  H12 UNK     1      50.406  11.330  -1.798  1.00  0.00     0.217 HD
ENDBRANCH  15  18
ENDBRANCH   3  12
BRANCH   8  20
ATOM     20  O3  UNK     1      46.515  11.450 -12.104  1.00  0.00    -0.360 OA
ATOM     21  H10 UNK     1      46.771  10.595 -12.487  1.00  0.00     0.217 HD
ENDBRANCH   8  20
BRANCH  11  22
ATOM     22  O4  UNK     1      42.521  10.287  -9.817  1.00  0.00    -0.361 OA
ATOM     23  H11 UNK     1      42.466   9.352 -10.083  1.00  0.00     0.217 HD
ENDBRANCH  11  22
TORSDOF 4
ENDMDL
MODEL 11
REMARK VINA RESULT:      -5.4      9.758     11.429
REMARK  4 active torsions:
REMARK  status: ('A' for Active; 'I' for Inactive)
REMARK    1  A    between atoms: O3_3  and  C7_12 
REMARK    2  A    between atoms: O4_4  and  C12_17 
REMARK    3  A    between atoms: O5_5  and  C15_20 
REMARK    4  A    between atoms: C1_6  and  C3_8 
ROOT
ATOM      1  O1  UNK     1      47.297  11.850  -6.889  1.00  0.00    -0.340 OA
ATOM      2  O2  UNK     1      50.696  12.737  -9.007  1.00  0.00    -0.292 OA
ATOM      3  C1  UNK     1      47.321  11.735  -8.321  1.00  0.00     0.169 C 
ATOM      4  C2  UNK     1      48.722  11.387  -8.819  1.00  0.00     0.121 C 
ATOM      5  C4  UNK     1      49.366  13.123  -7.096  1.00  0.00     0.076 A 
ATOM      6  C5  UNK     1      49.682  12.462  -8.379  1.00  0.00     0.167 C 
ATOM      7  C6  UNK     1      48.201  12.763  -6.412  1.00  0.00     0.089 A 
ATOM      8  C7  UNK     1      50.241  14.066  -6.550  1.00  0.00     0.085 A 
ATOM      9  C8  UNK     1      47.928  13.321  -5.163  1.00  0.00     0.074 A 
ATOM     10  C11 UNK     1      49.952  14.637  -5.310  1.00  0.00     0.074 A 
ATOM     11  C12 UNK     1      48.801  14.262  -4.615  1.00  0.00     0.071 A 
ENDROOT
BRANCH   3  12
ATOM     12  C3  UNK     1      46.317  10.678  -8.733  1.00  0.00    -0.028 A 
ATOM     13  C9  UNK     1      46.761   9.442  -9.203  1.00  0.00     0.012 A 
ATOM     14  C13 UNK     1      45.836   8.468  -9.583  1.00  0.00     0.037 A 
ATOM     15  C15 UNK     1      44.470   8.731  -9.492  1.00  0.00     0.065 A 
ATOM     16  C14 UNK     1      44.027   9.968  -9.021  1.00  0.00     0.037 A 
ATOM     17  C10 UNK     1      44.951  10.941  -8.641  1.00  0.00     0.012 A 
BRANCH  15  18
ATOM     18  O5  UNK     1      43.568   7.782  -9.862  1.00  0.00    -0.361 OA
ATOM     19  H12 UNK     1      43.896   6.909  -9.586  1.00  0.00     0.217 HD
ENDBRANCH  15  18
ENDBRANCH   3  12
BRANCH   8  20
ATOM     20  O3  UNK     1      51.386  14.456  -7.176  1.00  0.00    -0.360 OA
ATOM     21  H10 UNK     1      52.146  14.004  -6.775  1.00  0.00     0.217 HD
ENDBRANCH   8  20
BRANCH  11  22
ATOM     22  O4  UNK     1      48.529  14.817  -3.402  1.00  0.00    -0.361 OA
ATOM     23  H11 UNK     1      48.386  15.772  -3.517  1.00  0.00     0.217 HD
ENDBRANCH  11  22
TORSDOF 4
ENDMDL
MODEL 12
REMARK VINA RESULT:      -5.4      9.759     11.462
REMARK  4 active torsions:
REMARK  status: ('A' for Active; 'I' for Inactive)
REMARK    1  A    between atoms: O3_3  and  C7_12 
REMARK    2  A    between atoms: O4_4  and  C12_17 
REMARK    3  A    between atoms: O5_5  and  C15_20 
REMARK    4  A    between atoms: C1_6  and  C3_8 
ROOT
ATOM      1  O1  UNK     1      47.299  11.852  -6.887  1.00  0.00    -0.340 OA
ATOM      2  O2  UNK     1      50.700  12.735  -9.003  1.00  0.00    -0.292 OA
ATOM      3  C1  UNK     1      47.324  11.736  -8.318  1.00  0.00     0.169 C 
ATOM      4  C2  UNK     1      48.725  11.387  -8.815  1.00  0.00     0.121 C 
ATOM      5  C4  UNK     1      49.369  13.124  -7.092  1.00  0.00     0.076 A 
ATOM      6  C5  UNK     1      49.685  12.462  -8.375  1.00  0.00     0.167 C 
ATOM      7  C6  UNK     1      48.203  12.765  -6.410  1.00  0.00     0.089 A 
ATOM      8  C7  UNK     1      50.244  14.066  -6.547  1.00  0.00     0.085 A 
ATOM      9  C8  UNK     1      47.930  13.324  -5.161  1.00  0.00     0.074 A 
ATOM     10  C11 UNK     1      49.955  14.639  -5.308  1.00  0.00     0.074 A 
ATOM     11  C12 UNK     1      48.804  14.265  -4.613  1.00  0.00     0.071 A 
ENDROOT
BRANCH   3  12
ATOM     12  C3  UNK     1      46.320  10.679  -8.730  1.00  0.00    -0.028 A 
ATOM     13  C9  UNK     1      44.954  10.945  -8.641  1.00  0.00     0.012 A 
ATOM     14  C13 UNK     1      44.029   9.972  -9.022  1.00  0.00     0.037 A 
ATOM     15  C15 UNK     1      44.470   8.735  -9.489  1.00  0.00     0.065 A 
ATOM     16  C14 UNK     1      45.837   8.470  -9.577  1.00  0.00     0.037 A 
ATOM     17  C10 UNK     1      46.762   9.443  -9.198  1.00  0.00     0.012 A 
BRANCH  15  18
ATOM     18  O5  UNK     1      43.568   7.786  -9.860  1.00  0.00    -0.361 OA
ATOM     19  H12 UNK     1      43.365   7.226  -9.091  1.00  0.00     0.217 HD
ENDBRANCH  15  18
ENDBRANCH   3  12
BRANCH   8  20
ATOM     20  O3  UNK     1      51.390  14.456  -7.172  1.00  0.00    -0.360 OA
ATOM     21  H10 UNK     1      51.395  15.422  -7.269  1.00  0.00     0.217 HD
ENDBRANCH   8  20
BRANCH  11  22
ATOM     22  O4  UNK     1      48.531  14.820  -3.401  1.00  0.00    -0.361 OA
ATOM     23  H11 UNK     1      47.827  15.484  -3.509  1.00  0.00     0.217 HD
ENDBRANCH  11  22
TORSDOF 4
ENDMDL
MODEL 13
REMARK VINA RESULT:      -5.4     10.082     12.225
REMARK  4 active torsions:
REMARK  status: ('A' for Active; 'I' for Inactive)
REMARK    1  A    between atoms: O3_3  and  C7_12 
REMARK    2  A    between atoms: O4_4  and  C12_17 
REMARK    3  A    between atoms: O5_5  and  C15_20 
REMARK    4  A    between atoms: C1_6  and  C3_8 
ROOT
ATOM      1  O1  UNK     1      47.770  11.332  -5.920  1.00  0.00    -0.340 OA
ATOM      2  O2  UNK     1      50.705   8.625  -6.859  1.00  0.00    -0.292 OA
ATOM      3  C1  UNK     1      48.153  11.111  -7.286  1.00  0.00     0.169 C 
ATOM      4  C2  UNK     1      48.645   9.679  -7.492  1.00  0.00     0.121 C 
ATOM      5  C4  UNK     1      49.814  10.157  -5.300  1.00  0.00     0.076 A 
ATOM      6  C5  UNK     1      49.822   9.428  -6.585  1.00  0.00     0.167 C 
ATOM      7  C6  UNK     1      48.775  11.053  -5.031  1.00  0.00     0.089 A 
ATOM      8  C7  UNK     1      50.808   9.924  -4.347  1.00  0.00     0.085 A 
ATOM      9  C8  UNK     1      48.711  11.691  -3.792  1.00  0.00     0.074 A 
ATOM     10  C11 UNK     1      50.752  10.581  -3.117  1.00  0.00     0.074 A 
ATOM     11  C12 UNK     1      49.703  11.458  -2.837  1.00  0.00     0.071 A 
ENDROOT
BRANCH   3  12
ATOM     12  C3  UNK     1      46.963  11.412  -8.173  1.00  0.00    -0.028 A 
ATOM     13  C9  UNK     1      47.157  11.697  -9.524  1.00  0.00     0.012 A 
ATOM     14  C13 UNK     1      46.060  11.974 -10.341  1.00  0.00     0.037 A 
ATOM     15  C15 UNK     1      44.772  11.966  -9.807  1.00  0.00     0.065 A 
ATOM     16  C14 UNK     1      44.580  11.680  -8.455  1.00  0.00     0.037 A 
ATOM     17  C10 UNK     1      45.676  11.402  -7.638  1.00  0.00     0.012 A 
BRANCH  15  18
ATOM     18  O5  UNK     1      43.703  12.237 -10.604  1.00  0.00    -0.361 OA
ATOM     19  H12 UNK     1      43.233  11.407 -10.794  1.00  0.00     0.217 HD
ENDBRANCH  15  18
ENDBRANCH   3  12
BRANCH   8  20
ATOM     20  O3  UNK     1      51.845   9.066  -4.559  1.00  0.00    -0.360 OA
ATOM     21  H10 UNK     1      52.197   9.196  -5.455  1.00  0.00     0.217 HD
ENDBRANCH   8  20
BRANCH  11  22
ATOM     22  O4  UNK     1      49.648  12.090  -1.633  1.00  0.00    -0.361 OA
ATOM     23  H11 UNK     1      50.400  11.798  -1.088  1.00  0.00     0.217 HD
ENDBRANCH  11  22
TORSDOF 4
ENDMDL
MODEL 14
REMARK VINA RESULT:      -5.3     11.240     13.474
REMARK  4 active torsions:
REMARK  status: ('A' for Active; 'I' for Inactive)
REMARK    1  A    between atoms: O3_3  and  C7_12 
REMARK    2  A    between atoms: O4_4  and  C12_17 
REMARK    3  A    between atoms: O5_5  and  C15_20 
REMARK    4  A    between atoms: C1_6  and  C3_8 
ROOT
ATOM      1  O1  UNK     1      52.098  11.447  -2.548  1.00  0.00    -0.340 OA
ATOM      2  O2  UNK     1      50.935  11.480   1.386  1.00  0.00    -0.292 OA
ATOM      3  C1  UNK     1      50.858  10.846  -2.144  1.00  0.00     0.169 C 
ATOM      4  C2  UNK     1      50.279  11.552  -0.920  1.00  0.00     0.121 C 
ATOM      5  C4  UNK     1      52.698  11.468  -0.185  1.00  0.00     0.076 A 
ATOM      6  C5  UNK     1      51.274  11.476   0.209  1.00  0.00     0.167 C 
ATOM      7  C6  UNK     1      53.029  11.477  -1.543  1.00  0.00     0.089 A 
ATOM      8  C7  UNK     1      53.701  11.495   0.787  1.00  0.00     0.085 A 
ATOM      9  C8  UNK     1      54.368  11.547  -1.930  1.00  0.00     0.074 A 
ATOM     10  C11 UNK     1      55.039  11.544   0.394  1.00  0.00     0.074 A 
ATOM     11  C12 UNK     1      55.372  11.576  -0.961  1.00  0.00     0.071 A 
ENDROOT
BRANCH   3  12
ATOM     12  C3  UNK     1      49.896  10.901  -3.313  1.00  0.00    -0.028 A 
ATOM     13  C9  UNK     1      48.908  11.885  -3.354  1.00  0.00     0.012 A 
ATOM     14  C13 UNK     1      48.022  11.936  -4.431  1.00  0.00     0.037 A 
ATOM     15  C15 UNK     1      48.124  11.005  -5.464  1.00  0.00     0.065 A 
ATOM     16  C14 UNK     1      49.113  10.021  -5.421  1.00  0.00     0.037 A 
ATOM     17  C10 UNK     1      49.999   9.970  -4.345  1.00  0.00     0.012 A 
BRANCH  15  18
ATOM     18  O5  UNK     1      47.259  11.054  -6.514  1.00  0.00    -0.361 OA
ATOM     19  H12 UNK     1      47.003  10.148  -6.754  1.00  0.00     0.217 HD
ENDBRANCH  15  18
ENDBRANCH   3  12
BRANCH   8  20
ATOM     20  O3  UNK     1      53.434  11.483   2.122  1.00  0.00    -0.360 OA
ATOM     21  H10 UNK     1      53.187  12.377   2.413  1.00  0.00     0.217 HD
ENDBRANCH   8  20
BRANCH  11  22
ATOM     22  O4  UNK     1      56.679  11.632  -1.339  1.00  0.00    -0.361 OA
ATOM     23  H11 UNK     1      57.233  11.726  -0.545  1.00  0.00     0.217 HD
ENDBRANCH  11  22
TORSDOF 4
ENDMDL
MODEL 15
REMARK VINA RESULT:      -5.1     10.475     12.018
REMARK  4 active torsions:
REMARK  status: ('A' for Active; 'I' for Inactive)
REMARK    1  A    between atoms: O3_3  and  C7_12 
REMARK    2  A    between atoms: O4_4  and  C12_17 
REMARK    3  A    between atoms: O5_5  and  C15_20 
REMARK    4  A    between atoms: C1_6  and  C3_8 
ROOT
ATOM      1  O1  UNK     1      47.946  10.975  -6.496  1.00  0.00    -0.340 OA
ATOM      2  O2  UNK     1      50.701  13.961  -7.061  1.00  0.00    -0.292 OA
ATOM      3  C1  UNK     1      47.637  12.114  -7.315  1.00  0.00     0.169 C 
ATOM      4  C2  UNK     1      48.895  12.673  -7.974  1.00  0.00     0.121 C 
ATOM      5  C4  UNK     1      49.842  12.263  -5.665  1.00  0.00     0.076 A 
ATOM      6  C5  UNK     1      49.878  13.068  -6.903  1.00  0.00     0.167 C 
ATOM      7  C6  UNK     1      48.891  11.246  -5.541  1.00  0.00     0.089 A 
ATOM      8  C7  UNK     1      50.774  12.485  -4.648  1.00  0.00     0.085 A 
ATOM      9  C8  UNK     1      48.894  10.427  -4.412  1.00  0.00     0.074 A 
ATOM     10  C11 UNK     1      50.758  11.676  -3.511  1.00  0.00     0.074 A 
ATOM     11  C12 UNK     1      49.824  10.645  -3.395  1.00  0.00     0.071 A 
ENDROOT
BRANCH   3  12
ATOM     12  C3  UNK     1      46.617  11.694  -8.354  1.00  0.00    -0.028 A 
ATOM     13  C9  UNK     1      46.978  11.636  -9.700  1.00  0.00     0.012 A 
ATOM     14  C13 UNK     1      46.039  11.249 -10.656  1.00  0.00     0.037 A 
ATOM     15  C15 UNK     1      44.741  10.920 -10.267  1.00  0.00     0.065 A 
ATOM     16  C14 UNK     1      44.381  10.978  -8.919  1.00  0.00     0.037 A 
ATOM     17  C10 UNK     1      45.320  11.364  -7.963  1.00  0.00     0.012 A 
BRANCH  15  18
ATOM     18  O5  UNK     1      43.825  10.543 -11.200  1.00  0.00    -0.361 OA
ATOM     19  H12 UNK     1      44.247   9.932 -11.828  1.00  0.00     0.217 HD
ENDBRANCH  15  18
ENDBRANCH   3  12
BRANCH   8  20
ATOM     20  O3  UNK     1      51.718  13.464  -4.715  1.00  0.00    -0.360 OA
ATOM     21  H10 UNK     1      52.603  13.067  -4.666  1.00  0.00     0.217 HD
ENDBRANCH   8  20
BRANCH  11  22
ATOM     22  O4  UNK     1      49.819   9.854  -2.287  1.00  0.00    -0.361 OA
ATOM     23  H11 UNK     1      50.689   9.909  -1.855  1.00  0.00     0.217 HD
ENDBRANCH  11  22
TORSDOF 4
ENDMDL
MODEL 16
REMARK VINA RESULT:      -5.1     11.657     13.903
REMARK  4 active torsions:
REMARK  status: ('A' for Active; 'I' for Inactive)
REMARK    1  A    between atoms: O3_3  and  C7_12 
REMARK    2  A    between atoms: O4_4  and  C12_17 
REMARK    3  A    between atoms: O5_5  and  C15_20 
REMARK    4  A    between atoms: C1_6  and  C3_8 
ROOT
ATOM      1  O1  UNK     1      40.727  14.416 -13.829  1.00  0.00    -0.340 OA
ATOM      2  O2  UNK     1      40.544  10.912 -11.704  1.00  0.00    -0.292 OA
ATOM      3  C1  UNK     1      41.250  14.339 -12.494  1.00  0.00     0.169 C 
ATOM      4  C2  UNK     1      41.750  12.931 -12.181  1.00  0.00     0.121 C 
ATOM      5  C4  UNK     1      39.601  12.305 -13.360  1.00  0.00     0.076 A 
ATOM      6  C5  UNK     1      40.609  11.958 -12.338  1.00  0.00     0.167 C 
ATOM      7  C6  UNK     1      39.729  13.506 -14.064  1.00  0.00     0.089 A 
ATOM      8  C7  UNK     1      38.555  11.425 -13.651  1.00  0.00     0.085 A 
ATOM      9  C8  UNK     1      38.830  13.811 -15.086  1.00  0.00     0.074 A 
ATOM     10  C11 UNK     1      37.646  11.745 -14.660  1.00  0.00     0.074 A 
ATOM     11  C12 UNK     1      37.785  12.933 -15.380  1.00  0.00     0.071 A 
ENDROOT
BRANCH   3  12
ATOM     12  C3  UNK     1      42.364  15.357 -12.357  1.00  0.00    -0.028 A 
ATOM     13  C9  UNK     1      42.874  15.987 -13.492  1.00  0.00     0.012 A 
ATOM     14  C13 UNK     1      43.900  16.924 -13.366  1.00  0.00     0.037 A 
ATOM     15  C15 UNK     1      44.415  17.230 -12.107  1.00  0.00     0.065 A 
ATOM     16  C14 UNK     1      43.904  16.598 -10.972  1.00  0.00     0.037 A 
ATOM     17  C10 UNK     1      42.878  15.662 -11.098  1.00  0.00     0.012 A 
BRANCH  15  18
ATOM     18  O5  UNK     1      45.417  18.143 -11.984  1.00  0.00    -0.361 OA
ATOM     19  H12 UNK     1      46.256  17.674 -11.842  1.00  0.00     0.217 HD
ENDBRANCH  15  18
ENDBRANCH   3  12
BRANCH   8  20
ATOM     20  O3  UNK     1      38.381  10.245 -12.993  1.00  0.00    -0.360 OA
ATOM     21  H10 UNK     1      39.186  10.029 -12.494  1.00  0.00     0.217 HD
ENDBRANCH   8  20
BRANCH  11  22
ATOM     22  O4  UNK     1      36.900  13.237 -16.368  1.00  0.00    -0.361 OA
ATOM     23  H11 UNK     1      37.383  13.326 -17.208  1.00  0.00     0.217 HD
ENDBRANCH  11  22
TORSDOF 4
ENDMDL
