MODEL 1
REMARK VINA RESULT:      -7.4      0.000      0.000
REMARK  4 active torsions:
REMARK  status: ('A' for Active; 'I' for Inactive)
REMARK    1  A    between atoms: O3_3  and  C7_12 
REMARK    2  A    between atoms: O4_4  and  C12_17 
REMARK    3  A    between atoms: O5_5  and  C15_20 
REMARK    4  A    between atoms: C1_6  and  C3_8 
ROOT
ATOM      1  O1  UNK     1      39.883  15.474  -0.019  1.00  0.00    -0.340 OA
ATOM      2  O2  UNK     1      41.288  16.365  -3.768  1.00  0.00    -0.292 OA
ATOM      3  C1  UNK     1      40.069  14.440  -0.998  1.00  0.00     0.169 C 
ATOM      4  C2  UNK     1      41.202  14.792  -1.959  1.00  0.00     0.121 C 
ATOM      5  C4  UNK     1      40.087  17.061  -1.859  1.00  0.00     0.076 A 
ATOM      6  C5  UNK     1      40.877  16.093  -2.648  1.00  0.00     0.167 C 
ATOM      7  C6  UNK     1      39.654  16.704  -0.579  1.00  0.00     0.089 A 
ATOM      8  C7  UNK     1      39.813  18.333  -2.367  1.00  0.00     0.085 A 
ATOM      9  C8  UNK     1      38.974  17.634   0.208  1.00  0.00     0.074 A 
ATOM     10  C11 UNK     1      39.114  19.252  -1.584  1.00  0.00     0.074 A 
ATOM     11  C12 UNK     1      38.700  18.906  -0.297  1.00  0.00     0.071 A 
ENDROOT
BRANCH   3  12
ATOM     12  C3  UNK     1      40.352  13.140  -0.274  1.00  0.00    -0.028 A 
ATOM     13  C9  UNK     1      40.944  12.078  -0.957  1.00  0.00     0.012 A 
ATOM     14  C13 UNK     1      41.205  10.880  -0.289  1.00  0.00     0.037 A 
ATOM     15  C15 UNK     1      40.874  10.746   1.059  1.00  0.00     0.065 A 
ATOM     16  C14 UNK     1      40.281  11.810   1.740  1.00  0.00     0.037 A 
ATOM     17  C10 UNK     1      40.021  13.007   1.074  1.00  0.00     0.012 A 
BRANCH  15  18
ATOM     18  O5  UNK     1      41.128   9.578   1.709  1.00  0.00    -0.361 OA
ATOM     19  H12 UNK     1      41.784   9.742   2.407  1.00  0.00     0.217 HD
ENDBRANCH  15  18
ENDBRANCH   3  12
BRANCH   8  20
ATOM     20  O3  UNK     1      40.208  18.730  -3.609  1.00  0.00    -0.360 OA
ATOM     21  H10 UNK     1      40.217  17.966  -4.208  1.00  0.00     0.217 HD
ENDBRANCH   8  20
BRANCH  11  22
ATOM     22  O4  UNK     1      38.025  19.809   0.466  1.00  0.00    -0.361 OA
ATOM     23  H11 UNK     1      37.876  19.428   1.349  1.00  0.00     0.217 HD
ENDBRANCH  11  22
TORSDOF 4
ENDMDL
MODEL 2
REMARK VINA RESULT:      -7.4      0.037      1.081
REMARK  4 active torsions:
REMARK  status: ('A' for Active; 'I' for Inactive)
REMARK    1  A    between atoms: O3_3  and  C7_12 
REMARK    2  A    between atoms: O4_4  and  C12_17 
REMARK    3  A    between atoms: O5_5  and  C15_20 
REMARK    4  A    between atoms: C1_6  and  C3_8 
ROOT
ATOM      1  O1  UNK     1      39.872  15.485  -0.006  1.00  0.00    -0.340 OA
ATOM      2  O2  UNK     1      41.281  16.412  -3.745  1.00  0.00    -0.292 OA
ATOM      3  C1  UNK     1      40.063  14.460  -0.993  1.00  0.00     0.169 C 
ATOM      4  C2  UNK     1      41.197  14.824  -1.949  1.00  0.00     0.121 C 
ATOM      5  C4  UNK     1      40.074  17.088  -1.832  1.00  0.00     0.076 A 
ATOM      6  C5  UNK     1      40.869  16.129  -2.627  1.00  0.00     0.167 C 
ATOM      7  C6  UNK     1      39.639  16.719  -0.556  1.00  0.00     0.089 A 
ATOM      8  C7  UNK     1      39.796  18.363  -2.331  1.00  0.00     0.085 A 
ATOM      9  C8  UNK     1      38.954  17.640   0.237  1.00  0.00     0.074 A 
ATOM     10  C11 UNK     1      39.093  19.273  -1.542  1.00  0.00     0.074 A 
ATOM     11  C12 UNK     1      38.677  18.915  -0.258  1.00  0.00     0.071 A 
ENDROOT
BRANCH   3  12
ATOM     12  C3  UNK     1      40.349  13.155  -0.278  1.00  0.00    -0.028 A 
ATOM     13  C9  UNK     1      40.018  13.012   1.069  1.00  0.00     0.012 A 
ATOM     14  C13 UNK     1      40.281  11.810   1.727  1.00  0.00     0.037 A 
ATOM     15  C15 UNK     1      40.875  10.753   1.038  1.00  0.00     0.065 A 
ATOM     16  C14 UNK     1      41.206  10.897  -0.311  1.00  0.00     0.037 A 
ATOM     17  C10 UNK     1      40.941  12.099  -0.968  1.00  0.00     0.012 A 
BRANCH  15  18
ATOM     18  O5  UNK     1      41.132   9.581   1.679  1.00  0.00    -0.361 OA
ATOM     19  H12 UNK     1      41.411   9.775   2.590  1.00  0.00     0.217 HD
ENDBRANCH  15  18
ENDBRANCH   3  12
BRANCH   8  20
ATOM     20  O3  UNK     1      40.192  18.772  -3.568  1.00  0.00    -0.360 OA
ATOM     21  H10 UNK     1      39.704  18.276  -4.247  1.00  0.00     0.217 HD
ENDBRANCH   8  20
BRANCH  11  22
ATOM     22  O4  UNK     1      37.998  19.810   0.511  1.00  0.00    -0.361 OA
ATOM     23  H11 UNK     1      37.044  19.637   0.429  1.00  0.00     0.217 HD
ENDBRANCH  11  22
TORSDOF 4
ENDMDL
MODEL 3
REMARK VINA RESULT:      -7.4      2.433      7.129
REMARK  4 active torsions:
REMARK  status: ('A' for Active; 'I' for Inactive)
REMARK    1  A    between atoms: O3_3  and  C7_12 
REMARK    2  A    between atoms: O4_4  and  C12_17 
REMARK    3  A    between atoms: O5_5  and  C15_20 
REMARK    4  A    between atoms: C1_6  and  C3_8 
ROOT
ATOM      1  O1  UNK     1      40.410  17.048  -1.013  1.00  0.00    -0.340 OA
ATOM      2  O2  UNK     1      36.898  14.969  -0.596  1.00  0.00    -0.292 OA
ATOM      3  C1  UNK     1      39.147  17.684  -1.261  1.00  0.00     0.169 C 
ATOM      4  C2  UNK     1      38.045  17.068  -0.402  1.00  0.00     0.121 C 
ATOM      5  C4  UNK     1      39.204  14.931  -1.101  1.00  0.00     0.076 A 
ATOM      6  C5  UNK     1      37.943  15.597  -0.713  1.00  0.00     0.167 C 
ATOM      7  C6  UNK     1      40.371  15.692  -1.208  1.00  0.00     0.089 A 
ATOM      8  C7  UNK     1      39.238  13.551  -1.318  1.00  0.00     0.085 A 
ATOM      9  C8  UNK     1      41.584  15.065  -1.498  1.00  0.00     0.074 A 
ATOM     10  C11 UNK     1      40.450  12.933  -1.629  1.00  0.00     0.074 A 
ATOM     11  C12 UNK     1      41.622  13.687  -1.713  1.00  0.00     0.071 A 
ENDROOT
BRANCH   3  12
ATOM     12  C3  UNK     1      39.293  19.166  -0.980  1.00  0.00    -0.028 A 
ATOM     13  C9  UNK     1      38.641  19.734   0.114  1.00  0.00     0.012 A 
ATOM     14  C13 UNK     1      38.776  21.099   0.373  1.00  0.00     0.037 A 
ATOM     15  C15 UNK     1      39.563  21.892  -0.461  1.00  0.00     0.065 A 
ATOM     16  C14 UNK     1      40.216  21.322  -1.555  1.00  0.00     0.037 A 
ATOM     17  C10 UNK     1      40.081  19.958  -1.813  1.00  0.00     0.012 A 
BRANCH  15  18
ATOM     18  O5  UNK     1      39.695  23.223  -0.209  1.00  0.00    -0.361 OA
ATOM     19  H12 UNK     1      40.279  23.342   0.559  1.00  0.00     0.217 HD
ENDBRANCH  15  18
ENDBRANCH   3  12
BRANCH   8  20
ATOM     20  O3  UNK     1      38.130  12.764  -1.232  1.00  0.00    -0.360 OA
ATOM     21  H10 UNK     1      37.980  12.514  -0.305  1.00  0.00     0.217 HD
ENDBRANCH   8  20
BRANCH  11  22
ATOM     22  O4  UNK     1      42.803  13.077  -2.009  1.00  0.00    -0.361 OA
ATOM     23  H11 UNK     1      43.374  13.708  -2.481  1.00  0.00     0.217 HD
ENDBRANCH  11  22
TORSDOF 4
ENDMDL
MODEL 4
REMARK VINA RESULT:      -7.1      1.297      3.010
REMARK  4 active torsions:
REMARK  status: ('A' for Active; 'I' for Inactive)
REMARK    1  A    between atoms: O3_3  and  C7_12 
REMARK    2  A    between atoms: O4_4  and  C12_17 
REMARK    3  A    between atoms: O5_5  and  C15_20 
REMARK    4  A    between atoms: C1_6  and  C3_8 
ROOT
ATOM      1  O1  UNK     1      40.478  15.168  -2.034  1.00  0.00    -0.340 OA
ATOM      2  O2  UNK     1      38.805  18.105   0.290  1.00  0.00    -0.292 OA
ATOM      3  C1  UNK     1      40.530  15.089  -0.601  1.00  0.00     0.169 C 
ATOM      4  C2  UNK     1      39.322  15.777   0.031  1.00  0.00     0.121 C 
ATOM      5  C4  UNK     1      39.843  17.504  -1.743  1.00  0.00     0.076 A 
ATOM      6  C5  UNK     1      39.298  17.222  -0.399  1.00  0.00     0.167 C 
ATOM      7  C6  UNK     1      40.383  16.456  -2.494  1.00  0.00     0.089 A 
ATOM      8  C7  UNK     1      39.781  18.795  -2.276  1.00  0.00     0.085 A 
ATOM      9  C8  UNK     1      40.830  16.692  -3.794  1.00  0.00     0.074 A 
ATOM     10  C11 UNK     1      40.250  19.029  -3.569  1.00  0.00     0.074 A 
ATOM     11  C12 UNK     1      40.768  17.980  -4.329  1.00  0.00     0.071 A 
ENDROOT
BRANCH   3  12
ATOM     12  C3  UNK     1      40.596  13.629  -0.204  1.00  0.00    -0.028 A 
ATOM     13  C9  UNK     1      40.149  13.229   1.056  1.00  0.00     0.012 A 
ATOM     14  C13 UNK     1      40.209  11.884   1.421  1.00  0.00     0.037 A 
ATOM     15  C15 UNK     1      40.715  10.940   0.528  1.00  0.00     0.065 A 
ATOM     16  C14 UNK     1      41.162  11.341  -0.732  1.00  0.00     0.037 A 
ATOM     17  C10 UNK     1      41.101  12.686  -1.098  1.00  0.00     0.012 A 
BRANCH  15  18
ATOM     18  O5  UNK     1      40.774   9.628   0.884  1.00  0.00    -0.361 OA
ATOM     19  H12 UNK     1      39.979   9.176   0.555  1.00  0.00     0.217 HD
ENDBRANCH  15  18
ENDBRANCH   3  12
BRANCH   8  20
ATOM     20  O3  UNK     1      39.270  19.852  -1.586  1.00  0.00    -0.360 OA
ATOM     21  H10 UNK     1      39.576  19.818  -0.665  1.00  0.00     0.217 HD
ENDBRANCH   8  20
BRANCH  11  22
ATOM     22  O4  UNK     1      41.217  18.213  -5.593  1.00  0.00    -0.361 OA
ATOM     23  H11 UNK     1      41.671  17.416  -5.919  1.00  0.00     0.217 HD
ENDBRANCH  11  22
TORSDOF 4
ENDMDL
MODEL 5
REMARK VINA RESULT:      -6.4      1.559      6.777
REMARK  4 active torsions:
REMARK  status: ('A' for Active; 'I' for Inactive)
REMARK    1  A    between atoms: O3_3  and  C7_12 
REMARK    2  A    between atoms: O4_4  and  C12_17 
REMARK    3  A    between atoms: O5_5  and  C15_20 
REMARK    4  A    between atoms: C1_6  and  C3_8 
ROOT
ATOM      1  O1  UNK     1      40.151  14.013   0.667  1.00  0.00    -0.340 OA
ATOM      2  O2  UNK     1      41.606  10.599  -1.080  1.00  0.00    -0.292 OA
ATOM      3  C1  UNK     1      40.988  14.084  -0.498  1.00  0.00     0.169 C 
ATOM      4  C2  UNK     1      40.815  12.845  -1.373  1.00  0.00     0.121 C 
ATOM      5  C4  UNK     1      40.881  11.697   0.880  1.00  0.00     0.076 A 
ATOM      6  C5  UNK     1      41.167  11.621  -0.567  1.00  0.00     0.167 C 
ATOM      7  C6  UNK     1      40.368  12.883   1.412  1.00  0.00     0.089 A 
ATOM      8  C7  UNK     1      41.081  10.584   1.701  1.00  0.00     0.085 A 
ATOM      9  C8  UNK     1      40.022  12.946   2.762  1.00  0.00     0.074 A 
ATOM     10  C11 UNK     1      40.752  10.659   3.055  1.00  0.00     0.074 A 
ATOM     11  C12 UNK     1      40.218  11.835   3.584  1.00  0.00     0.071 A 
ENDROOT
BRANCH   3  12
ATOM     12  C3  UNK     1      40.639  15.345  -1.262  1.00  0.00    -0.028 A 
ATOM     13  C9  UNK     1      39.938  16.371  -0.629  1.00  0.00     0.012 A 
ATOM     14  C13 UNK     1      39.617  17.532  -1.333  1.00  0.00     0.037 A 
ATOM     15  C15 UNK     1      39.997  17.666  -2.668  1.00  0.00     0.065 A 
ATOM     16  C14 UNK     1      40.699  16.639  -3.300  1.00  0.00     0.037 A 
ATOM     17  C10 UNK     1      41.020  15.479  -2.596  1.00  0.00     0.012 A 
BRANCH  15  18
ATOM     18  O5  UNK     1      39.683  18.799  -3.354  1.00  0.00    -0.361 OA
ATOM     19  H12 UNK     1      39.571  18.577  -4.294  1.00  0.00     0.217 HD
ENDBRANCH  15  18
ENDBRANCH   3  12
BRANCH   8  20
ATOM     20  O3  UNK     1      41.582   9.406   1.236  1.00  0.00    -0.360 OA
ATOM     21  H10 UNK     1      42.034   8.937   1.957  1.00  0.00     0.217 HD
ENDBRANCH   8  20
BRANCH  11  22
ATOM     22  O4  UNK     1      39.892  11.900   4.904  1.00  0.00    -0.361 OA
ATOM     23  H11 UNK     1      40.613  12.342   5.386  1.00  0.00     0.217 HD
ENDBRANCH  11  22
TORSDOF 4
ENDMDL
MODEL 6
REMARK VINA RESULT:      -6.2      1.538      6.618
REMARK  4 active torsions:
REMARK  status: ('A' for Active; 'I' for Inactive)
REMARK    1  A    between atoms: O3_3  and  C7_12 
REMARK    2  A    between atoms: O4_4  and  C12_17 
REMARK    3  A    between atoms: O5_5  and  C15_20 
REMARK    4  A    between atoms: C1_6  and  C3_8 
ROOT
ATOM      1  O1  UNK     1      39.747  14.199   0.277  1.00  0.00    -0.340 OA
ATOM      2  O2  UNK     1      42.034  12.140  -2.434  1.00  0.00    -0.292 OA
ATOM      3  C1  UNK     1      40.652  14.892  -0.595  1.00  0.00     0.169 C 
ATOM      4  C2  UNK     1      40.822  14.144  -1.916  1.00  0.00     0.121 C 
ATOM      5  C4  UNK     1      40.922  12.157  -0.352  1.00  0.00     0.076 A 
ATOM      6  C5  UNK     1      41.347  12.760  -1.633  1.00  0.00     0.167 C 
ATOM      7  C6  UNK     1      40.127  12.905   0.521  1.00  0.00     0.089 A 
ATOM      8  C7  UNK     1      41.275  10.843  -0.036  1.00  0.00     0.085 A 
ATOM      9  C8  UNK     1      39.653  12.323   1.698  1.00  0.00     0.074 A 
ATOM     10  C11 UNK     1      40.816  10.274   1.152  1.00  0.00     0.074 A 
ATOM     11  C12 UNK     1      40.003  11.010   2.015  1.00  0.00     0.071 A 
ENDROOT
BRANCH   3  12
ATOM     12  C3  UNK     1      40.118  16.291  -0.826  1.00  0.00    -0.028 A 
ATOM     13  C9  UNK     1      40.334  16.925  -2.049  1.00  0.00     0.012 A 
ATOM     14  C13 UNK     1      39.842  18.214  -2.261  1.00  0.00     0.037 A 
ATOM     15  C15 UNK     1      39.135  18.866  -1.251  1.00  0.00     0.065 A 
ATOM     16  C14 UNK     1      38.920  18.230  -0.028  1.00  0.00     0.037 A 
ATOM     17  C10 UNK     1      39.411  16.942   0.184  1.00  0.00     0.012 A 
BRANCH  15  18
ATOM     18  O5  UNK     1      38.656  20.123  -1.458  1.00  0.00    -0.361 OA
ATOM     19  H12 UNK     1      38.410  20.216  -2.394  1.00  0.00     0.217 HD
ENDBRANCH  15  18
ENDBRANCH   3  12
BRANCH   8  20
ATOM     20  O3  UNK     1      42.051  10.073  -0.848  1.00  0.00    -0.360 OA
ATOM     21  H10 UNK     1      42.403   9.321  -0.345  1.00  0.00     0.217 HD
ENDBRANCH   8  20
BRANCH  11  22
ATOM     22  O4  UNK     1      39.551  10.447   3.170  1.00  0.00    -0.361 OA
ATOM     23  H11 UNK     1      39.261  11.153   3.773  1.00  0.00     0.217 HD
ENDBRANCH  11  22
TORSDOF 4
ENDMDL
MODEL 7
REMARK VINA RESULT:      -6.1      1.613      6.460
REMARK  4 active torsions:
REMARK  status: ('A' for Active; 'I' for Inactive)
REMARK    1  A    between atoms: O3_3  and  C7_12 
REMARK    2  A    between atoms: O4_4  and  C12_17 
REMARK    3  A    between atoms: O5_5  and  C15_20 
REMARK    4  A    between atoms: C1_6  and  C3_8 
ROOT
ATOM      1  O1  UNK     1      39.351  15.189  -0.360  1.00  0.00    -0.340 OA
ATOM      2  O2  UNK     1      42.529  14.522  -2.867  1.00  0.00    -0.292 OA
ATOM      3  C1  UNK     1      40.280  16.241  -0.663  1.00  0.00     0.169 C 
ATOM      4  C2  UNK     1      40.877  16.061  -2.057  1.00  0.00     0.121 C 
ATOM      5  C4  UNK     1      41.000  13.653  -1.293  1.00  0.00     0.076 A 
ATOM      6  C5  UNK     1      41.577  14.728  -2.126  1.00  0.00     0.167 C 
ATOM      7  C6  UNK     1      39.904  13.939  -0.473  1.00  0.00     0.089 A 
ATOM      8  C7  UNK     1      41.514  12.355  -1.355  1.00  0.00     0.085 A 
ATOM      9  C8  UNK     1      39.300  12.918   0.260  1.00  0.00     0.074 A 
ATOM     10  C11 UNK     1      40.919  11.341  -0.604  1.00  0.00     0.074 A 
ATOM     11  C12 UNK     1      39.811  11.620   0.198  1.00  0.00     0.071 A 
ENDROOT
BRANCH   3  12
ATOM     12  C3  UNK     1      39.558  17.567  -0.545  1.00  0.00    -0.028 A 
ATOM     13  C9  UNK     1      39.744  18.550  -1.516  1.00  0.00     0.012 A 
ATOM     14  C13 UNK     1      39.078  19.771  -1.408  1.00  0.00     0.037 A 
ATOM     15  C15 UNK     1      38.227  20.008  -0.329  1.00  0.00     0.065 A 
ATOM     16  C14 UNK     1      38.042  19.023   0.643  1.00  0.00     0.037 A 
ATOM     17  C10 UNK     1      38.707  17.802   0.534  1.00  0.00     0.012 A 
BRANCH  15  18
ATOM     18  O5  UNK     1      37.578  21.199  -0.223  1.00  0.00    -0.361 OA
ATOM     19  H12 UNK     1      38.230  21.900  -0.054  1.00  0.00     0.217 HD
ENDBRANCH  15  18
ENDBRANCH   3  12
BRANCH   8  20
ATOM     20  O3  UNK     1      42.582  12.023  -2.133  1.00  0.00    -0.360 OA
ATOM     21  H10 UNK     1      42.322  11.332  -2.764  1.00  0.00     0.217 HD
ENDBRANCH   8  20
BRANCH  11  22
ATOM     22  O4  UNK     1      39.229  10.625   0.923  1.00  0.00    -0.361 OA
ATOM     23  H11 UNK     1      39.281  10.852   1.868  1.00  0.00     0.217 HD
ENDBRANCH  11  22
TORSDOF 4
ENDMDL
MODEL 8
REMARK VINA RESULT:      -5.6     10.127     12.965
REMARK  4 active torsions:
REMARK  status: ('A' for Active; 'I' for Inactive)
REMARK    1  A    between atoms: O3_3  and  C7_12 
REMARK    2  A    between atoms: O4_4  and  C12_17 
REMARK    3  A    between atoms: O5_5  and  C15_20 
REMARK    4  A    between atoms: C1_6  and  C3_8 
ROOT
ATOM      1  O1  UNK     1      48.343   9.747  -6.898  1.00  0.00    -0.340 OA
ATOM      2  O2  UNK     1      45.693   9.927 -10.024  1.00  0.00    -0.292 OA
ATOM      3  C1  UNK     1      47.973  11.009  -7.475  1.00  0.00     0.169 C 
ATOM      4  C2  UNK     1      46.555  10.960  -8.038  1.00  0.00     0.121 C 
ATOM      5  C4  UNK     1      47.360   8.712  -8.875  1.00  0.00     0.076 A 
ATOM      6  C5  UNK     1      46.478   9.879  -9.085  1.00  0.00     0.167 C 
ATOM      7  C6  UNK     1      48.228   8.704  -7.779  1.00  0.00     0.089 A 
ATOM      8  C7  UNK     1      47.297   7.613  -9.735  1.00  0.00     0.085 A 
ATOM      9  C8  UNK     1      49.010   7.577  -7.523  1.00  0.00     0.074 A 
ATOM     10  C11 UNK     1      48.098   6.498  -9.486  1.00  0.00     0.074 A 
ATOM     11  C12 UNK     1      48.949   6.477  -8.380  1.00  0.00     0.071 A 
ENDROOT
BRANCH   3  12
ATOM     12  C3  UNK     1      48.101  12.079  -6.410  1.00  0.00    -0.028 A 
ATOM     13  C9  UNK     1      48.611  13.334  -6.742  1.00  0.00     0.012 A 
ATOM     14  C13 UNK     1      48.728  14.319  -5.760  1.00  0.00     0.037 A 
ATOM     15  C15 UNK     1      48.337  14.048  -4.450  1.00  0.00     0.065 A 
ATOM     16  C14 UNK     1      47.828  12.792  -4.119  1.00  0.00     0.037 A 
ATOM     17  C10 UNK     1      47.709  11.807  -5.100  1.00  0.00     0.012 A 
BRANCH  15  18
ATOM     18  O5  UNK     1      48.452  15.009  -3.493  1.00  0.00    -0.361 OA
ATOM     19  H12 UNK     1      47.703  15.624  -3.571  1.00  0.00     0.217 HD
ENDBRANCH  15  18
ENDBRANCH   3  12
BRANCH   8  20
ATOM     20  O3  UNK     1      46.474   7.572 -10.819  1.00  0.00    -0.360 OA
ATOM     21  H10 UNK     1      45.554   7.465 -10.524  1.00  0.00     0.217 HD
ENDBRANCH   8  20
BRANCH  11  22
ATOM     22  O4  UNK     1      49.722   5.383  -8.137  1.00  0.00    -0.361 OA
ATOM     23  H11 UNK     1      50.603   5.677  -7.848  1.00  0.00     0.217 HD
ENDBRANCH  11  22
TORSDOF 4
ENDMDL
MODEL 9
REMARK VINA RESULT:      -5.6     10.145     13.004
REMARK  4 active torsions:
REMARK  status: ('A' for Active; 'I' for Inactive)
REMARK    1  A    between atoms: O3_3  and  C7_12 
REMARK    2  A    between atoms: O4_4  and  C12_17 
REMARK    3  A    between atoms: O5_5  and  C15_20 
REMARK    4  A    between atoms: C1_6  and  C3_8 
ROOT
ATOM      1  O1  UNK     1      48.353   9.747  -6.898  1.00  0.00    -0.340 OA
ATOM      2  O2  UNK     1      45.770   9.943 -10.078  1.00  0.00    -0.292 OA
ATOM      3  C1  UNK     1      48.007  11.011  -7.485  1.00  0.00     0.169 C 
ATOM      4  C2  UNK     1      46.599  10.973  -8.077  1.00  0.00     0.121 C 
ATOM      5  C4  UNK     1      47.401   8.716  -8.892  1.00  0.00     0.076 A 
ATOM      6  C5  UNK     1      46.534   9.891  -9.123  1.00  0.00     0.167 C 
ATOM      7  C6  UNK     1      48.246   8.702  -7.779  1.00  0.00     0.089 A 
ATOM      8  C7  UNK     1      47.347   7.616  -9.751  1.00  0.00     0.085 A 
ATOM      9  C8  UNK     1      49.013   7.569  -7.505  1.00  0.00     0.074 A 
ATOM     10  C11 UNK     1      48.132   6.494  -9.484  1.00  0.00     0.074 A 
ATOM     11  C12 UNK     1      48.960   6.468  -8.360  1.00  0.00     0.071 A 
ENDROOT
BRANCH   3  12
ATOM     12  C3  UNK     1      48.122  12.081  -6.419  1.00  0.00    -0.028 A 
ATOM     13  C9  UNK     1      47.711  11.811  -5.114  1.00  0.00     0.012 A 
ATOM     14  C13 UNK     1      47.818  12.797  -4.133  1.00  0.00     0.037 A 
ATOM     15  C15 UNK     1      48.335  14.051  -4.456  1.00  0.00     0.065 A 
ATOM     16  C14 UNK     1      48.745  14.320  -5.763  1.00  0.00     0.037 A 
ATOM     17  C10 UNK     1      48.640  13.334  -6.744  1.00  0.00     0.012 A 
BRANCH  15  18
ATOM     18  O5  UNK     1      48.438  15.013  -3.499  1.00  0.00    -0.361 OA
ATOM     19  H12 UNK     1      49.058  14.710  -2.814  1.00  0.00     0.217 HD
ENDBRANCH  15  18
ENDBRANCH   3  12
BRANCH   8  20
ATOM     20  O3  UNK     1      46.545   7.580 -10.852  1.00  0.00    -0.360 OA
ATOM     21  H10 UNK     1      46.909   6.952 -11.499  1.00  0.00     0.217 HD
ENDBRANCH   8  20
BRANCH  11  22
ATOM     22  O4  UNK     1      49.718   5.367  -8.099  1.00  0.00    -0.361 OA
ATOM     23  H11 UNK     1      49.142   4.661  -7.757  1.00  0.00     0.217 HD
ENDBRANCH  11  22
TORSDOF 4
ENDMDL
MODEL 10
REMARK VINA RESULT:      -5.6      9.706     12.088
REMARK  4 active torsions:
REMARK  status: ('A' for Active; 'I' for Inactive)
REMARK    1  A    between atoms: O3_3  and  C7_12 
REMARK    2  A    between atoms: O4_4  and  C12_17 
REMARK    3  A    between atoms: O5_5  and  C15_20 
REMARK    4  A    between atoms: C1_6  and  C3_8 
ROOT
ATOM      1  O1  UNK     1      46.211  11.064  -7.742  1.00  0.00    -0.340 OA
ATOM      2  O2  UNK     1      48.979   9.913 -10.543  1.00  0.00    -0.292 OA
ATOM      3  C1  UNK     1      47.613  11.065  -7.432  1.00  0.00     0.169 C 
ATOM      4  C2  UNK     1      48.451  11.331  -8.681  1.00  0.00     0.121 C 
ATOM      5  C4  UNK     1      46.785   9.718  -9.693  1.00  0.00     0.076 A 
ATOM      6  C5  UNK     1      48.157  10.266  -9.706  1.00  0.00     0.167 C 
ATOM      7  C6  UNK     1      45.882  10.165  -8.724  1.00  0.00     0.089 A 
ATOM      8  C7  UNK     1      46.381   8.796 -10.662  1.00  0.00     0.085 A 
ATOM      9  C8  UNK     1      44.562   9.715  -8.745  1.00  0.00     0.074 A 
ATOM     10  C11 UNK     1      45.065   8.333 -10.665  1.00  0.00     0.074 A 
ATOM     11  C12 UNK     1      44.155   8.795  -9.713  1.00  0.00     0.071 A 
ENDROOT
BRANCH   3  12
ATOM     12  C3  UNK     1      47.867  12.115  -6.370  1.00  0.00    -0.028 A 
ATOM     13  C9  UNK     1      48.351  13.371  -6.736  1.00  0.00     0.012 A 
ATOM     14  C13 UNK     1      48.586  14.338  -5.758  1.00  0.00     0.037 A 
ATOM     15  C15 UNK     1      48.336  14.049  -4.417  1.00  0.00     0.065 A 
ATOM     16  C14 UNK     1      47.852  12.792  -4.052  1.00  0.00     0.037 A 
ATOM     17  C10 UNK     1      47.617  11.825  -5.030  1.00  0.00     0.012 A 
BRANCH  15  18
ATOM     18  O5  UNK     1      48.565  14.992  -3.463  1.00  0.00    -0.361 OA
ATOM     19  H12 UNK     1      48.295  15.861  -3.807  1.00  0.00     0.217 HD
ENDBRANCH  15  18
ENDBRANCH   3  12
BRANCH   8  20
ATOM     20  O3  UNK     1      47.221   8.324 -11.625  1.00  0.00    -0.360 OA
ATOM     21  H10 UNK     1      48.049   8.024 -11.215  1.00  0.00     0.217 HD
ENDBRANCH   8  20
BRANCH  11  22
ATOM     22  O4  UNK     1      42.870   8.346  -9.726  1.00  0.00    -0.361 OA
ATOM     23  H11 UNK     1      42.276   9.094  -9.915  1.00  0.00     0.217 HD
ENDBRANCH  11  22
TORSDOF 4
ENDMDL
MODEL 11
REMARK VINA RESULT:      -5.5      9.738     12.139
REMARK  4 active torsions:
REMARK  status: ('A' for Active; 'I' for Inactive)
REMARK    1  A    between atoms: O3_3  and  C7_12 
REMARK    2  A    between atoms: O4_4  and  C12_17 
REMARK    3  A    between atoms: O5_5  and  C15_20 
REMARK    4  A    between atoms: C1_6  and  C3_8 
ROOT
ATOM      1  O1  UNK     1      46.185  11.034  -7.803  1.00  0.00    -0.340 OA
ATOM      2  O2  UNK     1      48.986   9.761 -10.516  1.00  0.00    -0.292 OA
ATOM      3  C1  UNK     1      47.577  10.995  -7.456  1.00  0.00     0.169 C 
ATOM      4  C2  UNK     1      48.455  11.218  -8.685  1.00  0.00     0.121 C 
ATOM      5  C4  UNK     1      46.766   9.646  -9.722  1.00  0.00     0.076 A 
ATOM      6  C5  UNK     1      48.155  10.151  -9.705  1.00  0.00     0.167 C 
ATOM      7  C6  UNK     1      45.853  10.134  -8.782  1.00  0.00     0.089 A 
ATOM      8  C7  UNK     1      46.358   8.725 -10.690  1.00  0.00     0.085 A 
ATOM      9  C8  UNK     1      44.520   9.725  -8.833  1.00  0.00     0.074 A 
ATOM     10  C11 UNK     1      45.028   8.304 -10.723  1.00  0.00     0.074 A 
ATOM     11  C12 UNK     1      44.109   8.807  -9.800  1.00  0.00     0.071 A 
ENDROOT
BRANCH   3  12
ATOM     12  C3  UNK     1      47.838  12.049  -6.400  1.00  0.00    -0.028 A 
ATOM     13  C9  UNK     1      47.571  11.772  -5.059  1.00  0.00     0.012 A 
ATOM     14  C13 UNK     1      47.811  12.744  -4.087  1.00  0.00     0.037 A 
ATOM     15  C15 UNK     1      48.317  13.990  -4.455  1.00  0.00     0.065 A 
ATOM     16  C14 UNK     1      48.583  14.266  -5.797  1.00  0.00     0.037 A 
ATOM     17  C10 UNK     1      48.344  13.294  -6.769  1.00  0.00     0.012 A 
BRANCH  15  18
ATOM     18  O5  UNK     1      48.551  14.938  -3.507  1.00  0.00    -0.361 OA
ATOM     19  H12 UNK     1      48.334  14.570  -2.634  1.00  0.00     0.217 HD
ENDBRANCH  15  18
ENDBRANCH   3  12
BRANCH   8  20
ATOM     20  O3  UNK     1      47.207   8.215 -11.625  1.00  0.00    -0.360 OA
ATOM     21  H10 UNK     1      47.991   8.784 -11.698  1.00  0.00     0.217 HD
ENDBRANCH   8  20
BRANCH  11  22
ATOM     22  O4  UNK     1      42.811   8.398  -9.842  1.00  0.00    -0.361 OA
ATOM     23  H11 UNK     1      42.770   7.455  -9.609  1.00  0.00     0.217 HD
ENDBRANCH  11  22
TORSDOF 4
ENDMDL
MODEL 12
REMARK VINA RESULT:      -5.5     10.140     12.071
REMARK  4 active torsions:
REMARK  status: ('A' for Active; 'I' for Inactive)
REMARK    1  A    between atoms: O3_3  and  C7_12 
REMARK    2  A    between atoms: O4_4  and  C12_17 
REMARK    3  A    between atoms: O5_5  and  C15_20 
REMARK    4  A    between atoms: C1_6  and  C3_8 
ROOT
ATOM      1  O1  UNK     1      46.225  11.380  -7.933  1.00  0.00    -0.340 OA
ATOM      2  O2  UNK     1      48.087   7.961  -9.226  1.00  0.00    -0.292 OA
ATOM      3  C1  UNK     1      47.378  10.868  -7.247  1.00  0.00     0.169 C 
ATOM      4  C2  UNK     1      48.302  10.122  -8.207  1.00  0.00     0.121 C 
ATOM      5  C4  UNK     1      46.094   9.212  -9.042  1.00  0.00     0.076 A 
ATOM      6  C5  UNK     1      47.540   8.987  -8.841  1.00  0.00     0.167 C 
ATOM      7  C6  UNK     1      45.522  10.407  -8.595  1.00  0.00     0.089 A 
ATOM      8  C7  UNK     1      45.314   8.263  -9.707  1.00  0.00     0.085 A 
ATOM      9  C8  UNK     1      44.175  10.668  -8.845  1.00  0.00     0.074 A 
ATOM     10  C11 UNK     1      43.962   8.519  -9.935  1.00  0.00     0.074 A 
ATOM     11  C12 UNK     1      43.394   9.722  -9.511  1.00  0.00     0.071 A 
ENDROOT
BRANCH   3  12
ATOM     12  C3  UNK     1      48.096  12.026  -6.586  1.00  0.00    -0.028 A 
ATOM     13  C9  UNK     1      47.854  12.322  -5.245  1.00  0.00     0.012 A 
ATOM     14  C13 UNK     1      48.516  13.390  -4.637  1.00  0.00     0.037 A 
ATOM     15  C15 UNK     1      49.419  14.159  -5.370  1.00  0.00     0.065 A 
ATOM     16  C14 UNK     1      49.661  13.861  -6.712  1.00  0.00     0.037 A 
ATOM     17  C10 UNK     1      49.000  12.794  -7.319  1.00  0.00     0.012 A 
BRANCH  15  18
ATOM     18  O5  UNK     1      50.065  15.200  -4.777  1.00  0.00    -0.361 OA
ATOM     19  H12 UNK     1      51.019  15.013  -4.763  1.00  0.00     0.217 HD
ENDBRANCH  15  18
ENDBRANCH   3  12
BRANCH   8  20
ATOM     20  O3  UNK     1      45.819   7.081 -10.158  1.00  0.00    -0.360 OA
ATOM     21  H10 UNK     1      46.310   6.643  -9.443  1.00  0.00     0.217 HD
ENDBRANCH   8  20
BRANCH  11  22
ATOM     22  O4  UNK     1      42.076   9.970  -9.744  1.00  0.00    -0.361 OA
ATOM     23  H11 UNK     1      41.547   9.239  -9.379  1.00  0.00     0.217 HD
ENDBRANCH  11  22
TORSDOF 4
ENDMDL
MODEL 13
REMARK VINA RESULT:      -5.5     10.141     12.031
REMARK  4 active torsions:
REMARK  status: ('A' for Active; 'I' for Inactive)
REMARK    1  A    between atoms: O3_3  and  C7_12 
REMARK    2  A    between atoms: O4_4  and  C12_17 
REMARK    3  A    between atoms: O5_5  and  C15_20 
REMARK    4  A    between atoms: C1_6  and  C3_8 
ROOT
ATOM      1  O1  UNK     1      46.226  11.380  -7.932  1.00  0.00    -0.340 OA
ATOM      2  O2  UNK     1      48.087   7.961  -9.226  1.00  0.00    -0.292 OA
ATOM      3  C1  UNK     1      47.378  10.867  -7.246  1.00  0.00     0.169 C 
ATOM      4  C2  UNK     1      48.302  10.122  -8.207  1.00  0.00     0.121 C 
ATOM      5  C4  UNK     1      46.094   9.212  -9.042  1.00  0.00     0.076 A 
ATOM      6  C5  UNK     1      47.540   8.987  -8.841  1.00  0.00     0.167 C 
ATOM      7  C6  UNK     1      45.523  10.407  -8.595  1.00  0.00     0.089 A 
ATOM      8  C7  UNK     1      45.314   8.263  -9.707  1.00  0.00     0.085 A 
ATOM      9  C8  UNK     1      44.175  10.668  -8.845  1.00  0.00     0.074 A 
ATOM     10  C11 UNK     1      43.962   8.520  -9.936  1.00  0.00     0.074 A 
ATOM     11  C12 UNK     1      43.394   9.722  -9.511  1.00  0.00     0.071 A 
ENDROOT
BRANCH   3  12
ATOM     12  C3  UNK     1      48.097  12.025  -6.585  1.00  0.00    -0.028 A 
ATOM     13  C9  UNK     1      48.999  12.794  -7.320  1.00  0.00     0.012 A 
ATOM     14  C13 UNK     1      49.661  13.861  -6.711  1.00  0.00     0.037 A 
ATOM     15  C15 UNK     1      49.420  14.158  -5.371  1.00  0.00     0.065 A 
ATOM     16  C14 UNK     1      48.517  13.388  -4.637  1.00  0.00     0.037 A 
ATOM     17  C10 UNK     1      47.854  12.322  -5.245  1.00  0.00     0.012 A 
BRANCH  15  18
ATOM     18  O5  UNK     1      50.066  15.199  -4.777  1.00  0.00    -0.361 OA
ATOM     19  H12 UNK     1      50.369  15.816  -5.465  1.00  0.00     0.217 HD
ENDBRANCH  15  18
ENDBRANCH   3  12
BRANCH   8  20
ATOM     20  O3  UNK     1      45.819   7.081 -10.158  1.00  0.00    -0.360 OA
ATOM     21  H10 UNK     1      45.120   6.580 -10.609  1.00  0.00     0.217 HD
ENDBRANCH   8  20
BRANCH  11  22
ATOM     22  O4  UNK     1      42.076   9.971  -9.744  1.00  0.00    -0.361 OA
ATOM     23  H11 UNK     1      41.767   9.390 -10.461  1.00  0.00     0.217 HD
ENDBRANCH  11  22
TORSDOF 4
ENDMDL
MODEL 14
REMARK VINA RESULT:      -5.3     10.172     11.167
REMARK  4 active torsions:
REMARK  status: ('A' for Active; 'I' for Inactive)
REMARK    1  A    between atoms: O3_3  and  C7_12 
REMARK    2  A    between atoms: O4_4  and  C12_17 
REMARK    3  A    between atoms: O5_5  and  C15_20 
REMARK    4  A    between atoms: C1_6  and  C3_8 
ROOT
ATOM      1  O1  UNK     1      46.791  11.204  -6.834  1.00  0.00    -0.340 OA
ATOM      2  O2  UNK     1      48.983  12.580 -10.017  1.00  0.00    -0.292 OA
ATOM      3  C1  UNK     1      48.218  11.045  -6.866  1.00  0.00     0.169 C 
ATOM      4  C2  UNK     1      48.878  12.174  -7.655  1.00  0.00     0.121 C 
ATOM      5  C4  UNK     1      46.935  11.725  -9.212  1.00  0.00     0.076 A 
ATOM      6  C5  UNK     1      48.334  12.175  -9.060  1.00  0.00     0.167 C 
ATOM      7  C6  UNK     1      46.235  11.285  -8.085  1.00  0.00     0.089 A 
ATOM      8  C7  UNK     1      46.305  11.778 -10.458  1.00  0.00     0.085 A 
ATOM      9  C8  UNK     1      44.891  10.930  -8.197  1.00  0.00     0.074 A 
ATOM     10  C11 UNK     1      44.966  11.401 -10.569  1.00  0.00     0.074 A 
ATOM     11  C12 UNK     1      44.258  10.983  -9.440  1.00  0.00     0.071 A 
ENDROOT
BRANCH   3  12
ATOM     12  C3  UNK     1      48.727  11.006  -5.440  1.00  0.00    -0.028 A 
ATOM     13  C9  UNK     1      49.628  10.015  -5.050  1.00  0.00     0.012 A 
ATOM     14  C13 UNK     1      50.098   9.979  -3.737  1.00  0.00     0.037 A 
ATOM     15  C15 UNK     1      49.666  10.932  -2.815  1.00  0.00     0.065 A 
ATOM     16  C14 UNK     1      48.764  11.923  -3.206  1.00  0.00     0.037 A 
ATOM     17  C10 UNK     1      48.296  11.959  -4.520  1.00  0.00     0.012 A 
BRANCH  15  18
ATOM     18  O5  UNK     1      50.123  10.897  -1.534  1.00  0.00    -0.361 OA
ATOM     19  H12 UNK     1      50.440   9.999  -1.337  1.00  0.00     0.217 HD
ENDBRANCH  15  18
ENDBRANCH   3  12
BRANCH   8  20
ATOM     20  O3  UNK     1      46.941  12.193 -11.588  1.00  0.00    -0.360 OA
ATOM     21  H10 UNK     1      47.787  11.724 -11.676  1.00  0.00     0.217 HD
ENDBRANCH   8  20
BRANCH  11  22
ATOM     22  O4  UNK     1      42.950  10.624  -9.553  1.00  0.00    -0.361 OA
ATOM     23  H11 UNK     1      42.552  11.109 -10.297  1.00  0.00     0.217 HD
ENDBRANCH  11  22
TORSDOF 4
ENDMDL
