MODEL 1
REMARK VINA RESULT:      -6.0      0.000      0.000
REMARK  4 active torsions:
REMARK  status: ('A' for Active; 'I' for Inactive)
REMARK    1  A    between atoms: O3_3  and  C7_12 
REMARK    2  A    between atoms: O4_4  and  C12_17 
REMARK    3  A    between atoms: O5_5  and  C15_20 
REMARK    4  A    between atoms: C1_6  and  C3_8 
ROOT
ATOM      1  O1  UNK     1      39.089  22.146  11.151  1.00  0.00    -0.340 OA
ATOM      2  O2  UNK     1      37.895  19.572  14.114  1.00  0.00    -0.292 OA
ATOM      3  C1  UNK     1      37.702  22.027  11.506  1.00  0.00     0.169 C 
ATOM      4  C2  UNK     1      37.543  21.655  12.978  1.00  0.00     0.121 C 
ATOM      5  C4  UNK     1      39.443  20.086  12.407  1.00  0.00     0.076 A 
ATOM      6  C5  UNK     1      38.247  20.348  13.235  1.00  0.00     0.167 C 
ATOM      7  C6  UNK     1      39.808  21.012  11.426  1.00  0.00     0.089 A 
ATOM      8  C7  UNK     1      40.223  18.949  12.630  1.00  0.00     0.085 A 
ATOM      9  C8  UNK     1      40.977  20.817  10.689  1.00  0.00     0.074 A 
ATOM     10  C11 UNK     1      41.379  18.748  11.876  1.00  0.00     0.074 A 
ATOM     11  C12 UNK     1      41.759  19.682  10.911  1.00  0.00     0.071 A 
ENDROOT
BRANCH   3  12
ATOM     12  C3  UNK     1      37.015  23.342  11.197  1.00  0.00    -0.028 A 
ATOM     13  C9  UNK     1      35.988  23.385  10.254  1.00  0.00     0.012 A 
ATOM     14  C13 UNK     1      35.355  24.596   9.970  1.00  0.00     0.037 A 
ATOM     15  C15 UNK     1      35.749  25.760  10.628  1.00  0.00     0.065 A 
ATOM     16  C14 UNK     1      36.777  25.715  11.571  1.00  0.00     0.037 A 
ATOM     17  C10 UNK     1      37.409  24.505  11.856  1.00  0.00     0.012 A 
BRANCH  15  18
ATOM     18  O5  UNK     1      35.132  26.941  10.351  1.00  0.00    -0.361 OA
ATOM     19  H12 UNK     1      35.392  27.231   9.460  1.00  0.00     0.217 HD
ENDBRANCH  15  18
ENDBRANCH   3  12
BRANCH   8  20
ATOM     20  O3  UNK     1      39.910  18.013  13.569  1.00  0.00    -0.360 OA
ATOM     21  H10 UNK     1      39.691  17.174  13.132  1.00  0.00     0.217 HD
ENDBRANCH   8  20
BRANCH  11  22
ATOM     22  O4  UNK     1      42.893  19.486  10.183  1.00  0.00    -0.361 OA
ATOM     23  H11 UNK     1      42.757  18.731   9.585  1.00  0.00     0.217 HD
ENDBRANCH  11  22
TORSDOF 4
ENDMDL
MODEL 2
REMARK VINA RESULT:      -6.0      0.065      1.082
REMARK  4 active torsions:
REMARK  status: ('A' for Active; 'I' for Inactive)
REMARK    1  A    between atoms: O3_3  and  C7_12 
REMARK    2  A    between atoms: O4_4  and  C12_17 
REMARK    3  A    between atoms: O5_5  and  C15_20 
REMARK    4  A    between atoms: C1_6  and  C3_8 
ROOT
ATOM      1  O1  UNK     1      39.093  22.145  11.156  1.00  0.00    -0.340 OA
ATOM      2  O2  UNK     1      37.963  19.550  14.125  1.00  0.00    -0.292 OA
ATOM      3  C1  UNK     1      37.711  22.003  11.519  1.00  0.00     0.169 C 
ATOM      4  C2  UNK     1      37.568  21.628  12.993  1.00  0.00     0.121 C 
ATOM      5  C4  UNK     1      39.490  20.091  12.408  1.00  0.00     0.076 A 
ATOM      6  C5  UNK     1      38.296  20.333  13.244  1.00  0.00     0.167 C 
ATOM      7  C6  UNK     1      39.834  21.023  11.425  1.00  0.00     0.089 A 
ATOM      8  C7  UNK     1      40.291  18.967  12.625  1.00  0.00     0.085 A 
ATOM      9  C8  UNK     1      41.000  20.848  10.680  1.00  0.00     0.074 A 
ATOM     10  C11 UNK     1      41.446  18.786  11.862  1.00  0.00     0.074 A 
ATOM     11  C12 UNK     1      41.803  19.727  10.896  1.00  0.00     0.071 A 
ENDROOT
BRANCH   3  12
ATOM     12  C3  UNK     1      37.000  23.306  11.216  1.00  0.00    -0.028 A 
ATOM     13  C9  UNK     1      37.379  24.475  11.875  1.00  0.00     0.012 A 
ATOM     14  C13 UNK     1      36.724  25.675  11.595  1.00  0.00     0.037 A 
ATOM     15  C15 UNK     1      35.692  25.705  10.658  1.00  0.00     0.065 A 
ATOM     16  C14 UNK     1      35.313  24.533  10.000  1.00  0.00     0.037 A 
ATOM     17  C10 UNK     1      35.969  23.334  10.279  1.00  0.00     0.012 A 
BRANCH  15  18
ATOM     18  O5  UNK     1      35.053  26.875  10.386  1.00  0.00    -0.361 OA
ATOM     19  H12 UNK     1      35.178  27.484  11.133  1.00  0.00     0.217 HD
ENDBRANCH  15  18
ENDBRANCH   3  12
BRANCH   8  20
ATOM     20  O3  UNK     1      40.000  18.026  13.566  1.00  0.00    -0.360 OA
ATOM     21  H10 UNK     1      40.245  18.358  14.445  1.00  0.00     0.217 HD
ENDBRANCH   8  20
BRANCH  11  22
ATOM     22  O4  UNK     1      42.935  19.550  10.160  1.00  0.00    -0.361 OA
ATOM     23  H11 UNK     1      43.286  20.421   9.907  1.00  0.00     0.217 HD
ENDBRANCH  11  22
TORSDOF 4
ENDMDL
MODEL 3
REMARK VINA RESULT:      -5.9      2.195      6.934
REMARK  4 active torsions:
REMARK  status: ('A' for Active; 'I' for Inactive)
REMARK    1  A    between atoms: O3_3  and  C7_12 
REMARK    2  A    between atoms: O4_4  and  C12_17 
REMARK    3  A    between atoms: O5_5  and  C15_20 
REMARK    4  A    between atoms: C1_6  and  C3_8 
ROOT
ATOM      1  O1  UNK     1      36.603  23.356  10.603  1.00  0.00    -0.340 OA
ATOM      2  O2  UNK     1      34.531  22.954  14.121  1.00  0.00    -0.292 OA
ATOM      3  C1  UNK     1      37.257  22.881  11.790  1.00  0.00     0.169 C 
ATOM      4  C2  UNK     1      36.278  22.136  12.695  1.00  0.00     0.121 C 
ATOM      5  C4  UNK     1      34.786  24.078  12.060  1.00  0.00     0.076 A 
ATOM      6  C5  UNK     1      35.152  23.064  13.071  1.00  0.00     0.167 C 
ATOM      7  C6  UNK     1      35.520  24.152  10.873  1.00  0.00     0.089 A 
ATOM      8  C7  UNK     1      33.695  24.925  12.269  1.00  0.00     0.085 A 
ATOM      9  C8  UNK     1      35.139  25.051   9.877  1.00  0.00     0.074 A 
ATOM     10  C11 UNK     1      33.331  25.837  11.278  1.00  0.00     0.074 A 
ATOM     11  C12 UNK     1      34.048  25.897  10.082  1.00  0.00     0.071 A 
ENDROOT
BRANCH   3  12
ATOM     12  C3  UNK     1      38.408  21.987  11.377  1.00  0.00    -0.028 A 
ATOM     13  C9  UNK     1      39.349  21.582  12.324  1.00  0.00     0.012 A 
ATOM     14  C13 UNK     1      40.408  20.757  11.944  1.00  0.00     0.037 A 
ATOM     15  C15 UNK     1      40.527  20.340  10.619  1.00  0.00     0.065 A 
ATOM     16  C14 UNK     1      39.585  20.746   9.672  1.00  0.00     0.037 A 
ATOM     17  C10 UNK     1      38.525  21.569  10.053  1.00  0.00     0.012 A 
BRANCH  15  18
ATOM     18  O5  UNK     1      41.561  19.536  10.248  1.00  0.00    -0.361 OA
ATOM     19  H12 UNK     1      42.217  20.069   9.767  1.00  0.00     0.217 HD
ENDBRANCH  15  18
ENDBRANCH   3  12
BRANCH   8  20
ATOM     20  O3  UNK     1      32.950  24.898  13.409  1.00  0.00    -0.360 OA
ATOM     21  H10 UNK     1      32.008  24.822  13.181  1.00  0.00     0.217 HD
ENDBRANCH   8  20
BRANCH  11  22
ATOM     22  O4  UNK     1      33.684  26.784   9.115  1.00  0.00    -0.361 OA
ATOM     23  H11 UNK     1      34.292  26.695   8.361  1.00  0.00     0.217 HD
ENDBRANCH  11  22
TORSDOF 4
ENDMDL
MODEL 4
REMARK VINA RESULT:      -5.7      2.850      4.751
REMARK  4 active torsions:
REMARK  status: ('A' for Active; 'I' for Inactive)
REMARK    1  A    between atoms: O3_3  and  C7_12 
REMARK    2  A    between atoms: O4_4  and  C12_17 
REMARK    3  A    between atoms: O5_5  and  C15_20 
REMARK    4  A    between atoms: C1_6  and  C3_8 
ROOT
ATOM      1  O1  UNK     1      42.685  21.443  10.799  1.00  0.00    -0.340 OA
ATOM      2  O2  UNK     1      43.382  17.555  11.906  1.00  0.00    -0.292 OA
ATOM      3  C1  UNK     1      41.669  20.441  10.639  1.00  0.00     0.169 C 
ATOM      4  C2  UNK     1      41.804  19.350  11.699  1.00  0.00     0.121 C 
ATOM      5  C4  UNK     1      44.254  19.604  11.120  1.00  0.00     0.076 A 
ATOM      6  C5  UNK     1      43.166  18.716  11.583  1.00  0.00     0.167 C 
ATOM      7  C6  UNK     1      43.954  20.925  10.776  1.00  0.00     0.089 A 
ATOM      8  C7  UNK     1      45.571  19.142  11.069  1.00  0.00     0.085 A 
ATOM      9  C8  UNK     1      44.981  21.797  10.411  1.00  0.00     0.074 A 
ATOM     10  C11 UNK     1      46.591  20.013  10.683  1.00  0.00     0.074 A 
ATOM     11  C12 UNK     1      46.298  21.339  10.361  1.00  0.00     0.071 A 
ENDROOT
BRANCH   3  12
ATOM     12  C3  UNK     1      40.315  21.116  10.719  1.00  0.00    -0.028 A 
ATOM     13  C9  UNK     1      39.400  20.964   9.678  1.00  0.00     0.012 A 
ATOM     14  C13 UNK     1      38.153  21.585   9.752  1.00  0.00     0.037 A 
ATOM     15  C15 UNK     1      37.822  22.356  10.865  1.00  0.00     0.065 A 
ATOM     16  C14 UNK     1      38.739  22.507  11.907  1.00  0.00     0.037 A 
ATOM     17  C10 UNK     1      39.985  21.885  11.833  1.00  0.00     0.012 A 
BRANCH  15  18
ATOM     18  O5  UNK     1      36.605  22.962  10.937  1.00  0.00    -0.361 OA
ATOM     19  H12 UNK     1      36.105  22.763  10.127  1.00  0.00     0.217 HD
ENDBRANCH  15  18
ENDBRANCH   3  12
BRANCH   8  20
ATOM     20  O3  UNK     1      45.917  17.864  11.389  1.00  0.00    -0.360 OA
ATOM     21  H10 UNK     1      45.315  17.244  10.945  1.00  0.00     0.217 HD
ENDBRANCH   8  20
BRANCH  11  22
ATOM     22  O4  UNK     1      47.299  22.186   9.993  1.00  0.00    -0.361 OA
ATOM     23  H11 UNK     1      47.460  22.088   9.038  1.00  0.00     0.217 HD
ENDBRANCH  11  22
TORSDOF 4
ENDMDL
MODEL 5
REMARK VINA RESULT:      -5.7      2.850      4.862
REMARK  4 active torsions:
REMARK  status: ('A' for Active; 'I' for Inactive)
REMARK    1  A    between atoms: O3_3  and  C7_12 
REMARK    2  A    between atoms: O4_4  and  C12_17 
REMARK    3  A    between atoms: O5_5  and  C15_20 
REMARK    4  A    between atoms: C1_6  and  C3_8 
ROOT
ATOM      1  O1  UNK     1      42.685  21.443  10.800  1.00  0.00    -0.340 OA
ATOM      2  O2  UNK     1      43.383  17.555  11.907  1.00  0.00    -0.292 OA
ATOM      3  C1  UNK     1      41.669  20.441  10.640  1.00  0.00     0.169 C 
ATOM      4  C2  UNK     1      41.804  19.349  11.699  1.00  0.00     0.121 C 
ATOM      5  C4  UNK     1      44.254  19.604  11.121  1.00  0.00     0.076 A 
ATOM      6  C5  UNK     1      43.166  18.716  11.583  1.00  0.00     0.167 C 
ATOM      7  C6  UNK     1      43.954  20.925  10.776  1.00  0.00     0.089 A 
ATOM      8  C7  UNK     1      45.571  19.142  11.069  1.00  0.00     0.085 A 
ATOM      9  C8  UNK     1      44.981  21.797  10.412  1.00  0.00     0.074 A 
ATOM     10  C11 UNK     1      46.591  20.013  10.684  1.00  0.00     0.074 A 
ATOM     11  C12 UNK     1      46.298  21.339  10.361  1.00  0.00     0.071 A 
ENDROOT
BRANCH   3  12
ATOM     12  C3  UNK     1      40.315  21.115  10.719  1.00  0.00    -0.028 A 
ATOM     13  C9  UNK     1      39.986  21.886  11.834  1.00  0.00     0.012 A 
ATOM     14  C13 UNK     1      38.739  22.507  11.907  1.00  0.00     0.037 A 
ATOM     15  C15 UNK     1      37.822  22.357  10.867  1.00  0.00     0.065 A 
ATOM     16  C14 UNK     1      38.153  21.585   9.752  1.00  0.00     0.037 A 
ATOM     17  C10 UNK     1      39.400  20.965   9.679  1.00  0.00     0.012 A 
BRANCH  15  18
ATOM     18  O5  UNK     1      36.606  22.962  10.939  1.00  0.00    -0.361 OA
ATOM     19  H12 UNK     1      35.955  22.324  11.277  1.00  0.00     0.217 HD
ENDBRANCH  15  18
ENDBRANCH   3  12
BRANCH   8  20
ATOM     20  O3  UNK     1      45.917  17.864  11.389  1.00  0.00    -0.360 OA
ATOM     21  H10 UNK     1      45.953  17.769  12.356  1.00  0.00     0.217 HD
ENDBRANCH   8  20
BRANCH  11  22
ATOM     22  O4  UNK     1      47.298  22.186   9.993  1.00  0.00    -0.361 OA
ATOM     23  H11 UNK     1      48.119  21.920  10.443  1.00  0.00     0.217 HD
ENDBRANCH  11  22
TORSDOF 4
ENDMDL
MODEL 6
REMARK VINA RESULT:      -5.6      1.224      1.630
REMARK  4 active torsions:
REMARK  status: ('A' for Active; 'I' for Inactive)
REMARK    1  A    between atoms: O3_3  and  C7_12 
REMARK    2  A    between atoms: O4_4  and  C12_17 
REMARK    3  A    between atoms: O5_5  and  C15_20 
REMARK    4  A    between atoms: C1_6  and  C3_8 
ROOT
ATOM      1  O1  UNK     1      38.807  22.348  11.118  1.00  0.00    -0.340 OA
ATOM      2  O2  UNK     1      39.058  21.845  15.181  1.00  0.00    -0.292 OA
ATOM      3  C1  UNK     1      37.706  22.699  11.970  1.00  0.00     0.169 C 
ATOM      4  C2  UNK     1      38.197  23.133  13.349  1.00  0.00     0.121 C 
ATOM      5  C4  UNK     1      39.720  21.139  13.029  1.00  0.00     0.076 A 
ATOM      6  C5  UNK     1      38.981  22.006  13.970  1.00  0.00     0.167 C 
ATOM      7  C6  UNK     1      39.608  21.374  11.655  1.00  0.00     0.089 A 
ATOM      8  C7  UNK     1      40.553  20.124  13.505  1.00  0.00     0.085 A 
ATOM      9  C8  UNK     1      40.359  20.614  10.758  1.00  0.00     0.074 A 
ATOM     10  C11 UNK     1      41.286  19.353  12.602  1.00  0.00     0.074 A 
ATOM     11  C12 UNK     1      41.194  19.600  11.232  1.00  0.00     0.071 A 
ENDROOT
BRANCH   3  12
ATOM     12  C3  UNK     1      36.915  23.804  11.299  1.00  0.00    -0.028 A 
ATOM     13  C9  UNK     1      37.166  25.136  11.627  1.00  0.00     0.012 A 
ATOM     14  C13 UNK     1      36.437  26.153  11.009  1.00  0.00     0.037 A 
ATOM     15  C15 UNK     1      35.461  25.838  10.066  1.00  0.00     0.065 A 
ATOM     16  C14 UNK     1      35.211  24.504   9.739  1.00  0.00     0.037 A 
ATOM     17  C10 UNK     1      35.940  23.488  10.356  1.00  0.00     0.012 A 
BRANCH  15  18
ATOM     18  O5  UNK     1      34.750  26.830   9.463  1.00  0.00    -0.361 OA
ATOM     19  H12 UNK     1      34.372  26.489   8.635  1.00  0.00     0.217 HD
ENDBRANCH  15  18
ENDBRANCH   3  12
BRANCH   8  20
ATOM     20  O3  UNK     1      40.695  19.850  14.832  1.00  0.00    -0.360 OA
ATOM     21  H10 UNK     1      41.292  19.092  14.946  1.00  0.00     0.217 HD
ENDBRANCH   8  20
BRANCH  11  22
ATOM     22  O4  UNK     1      41.917  18.850  10.355  1.00  0.00    -0.361 OA
ATOM     23  H11 UNK     1      42.160  18.011  10.784  1.00  0.00     0.217 HD
ENDBRANCH  11  22
TORSDOF 4
ENDMDL
MODEL 7
REMARK VINA RESULT:      -5.6      4.019      4.823
REMARK  4 active torsions:
REMARK  status: ('A' for Active; 'I' for Inactive)
REMARK    1  A    between atoms: O3_3  and  C7_12 
REMARK    2  A    between atoms: O4_4  and  C12_17 
REMARK    3  A    between atoms: O5_5  and  C15_20 
REMARK    4  A    between atoms: C1_6  and  C3_8 
ROOT
ATOM      1  O1  UNK     1      43.376  21.267  11.891  1.00  0.00    -0.340 OA
ATOM      2  O2  UNK     1      39.679  19.671  12.677  1.00  0.00    -0.292 OA
ATOM      3  C1  UNK     1      42.181  21.937  11.461  1.00  0.00     0.169 C 
ATOM      4  C2  UNK     1      41.017  21.644  12.406  1.00  0.00     0.121 C 
ATOM      5  C4  UNK     1      41.975  19.307  12.268  1.00  0.00     0.076 A 
ATOM      6  C5  UNK     1      40.780  20.156  12.448  1.00  0.00     0.167 C 
ATOM      7  C6  UNK     1      43.211  19.912  12.021  1.00  0.00     0.089 A 
ATOM      8  C7  UNK     1      41.881  17.918  12.384  1.00  0.00     0.085 A 
ATOM      9  C8  UNK     1      44.361  19.128  11.926  1.00  0.00     0.074 A 
ATOM     10  C11 UNK     1      43.032  17.137  12.266  1.00  0.00     0.074 A 
ATOM     11  C12 UNK     1      44.270  17.741  12.043  1.00  0.00     0.071 A 
ENDROOT
BRANCH   3  12
ATOM     12  C3  UNK     1      42.465  23.423  11.389  1.00  0.00    -0.028 A 
ATOM     13  C9  UNK     1      41.840  24.295  12.280  1.00  0.00     0.012 A 
ATOM     14  C13 UNK     1      42.102  25.664  12.214  1.00  0.00     0.037 A 
ATOM     15  C15 UNK     1      42.987  26.159  11.257  1.00  0.00     0.065 A 
ATOM     16  C14 UNK     1      43.612  25.286  10.366  1.00  0.00     0.037 A 
ATOM     17  C10 UNK     1      43.351  23.917  10.433  1.00  0.00     0.012 A 
BRANCH  15  18
ATOM     18  O5  UNK     1      43.242  27.495  11.192  1.00  0.00    -0.361 OA
ATOM     19  H12 UNK     1      42.606  27.965  11.757  1.00  0.00     0.217 HD
ENDBRANCH  15  18
ENDBRANCH   3  12
BRANCH   8  20
ATOM     20  O3  UNK     1      40.703  17.277  12.619  1.00  0.00    -0.360 OA
ATOM     21  H10 UNK     1      39.988  17.721  12.134  1.00  0.00     0.217 HD
ENDBRANCH   8  20
BRANCH  11  22
ATOM     22  O4  UNK     1      45.391  16.975  11.937  1.00  0.00    -0.361 OA
ATOM     23  H11 UNK     1      45.196  16.082  12.273  1.00  0.00     0.217 HD
ENDBRANCH  11  22
TORSDOF 4
ENDMDL
MODEL 8
REMARK VINA RESULT:      -5.6      4.016      4.794
REMARK  4 active torsions:
REMARK  status: ('A' for Active; 'I' for Inactive)
REMARK    1  A    between atoms: O3_3  and  C7_12 
REMARK    2  A    between atoms: O4_4  and  C12_17 
REMARK    3  A    between atoms: O5_5  and  C15_20 
REMARK    4  A    between atoms: C1_6  and  C3_8 
ROOT
ATOM      1  O1  UNK     1      43.371  21.270  11.894  1.00  0.00    -0.340 OA
ATOM      2  O2  UNK     1      39.673  19.672  12.669  1.00  0.00    -0.292 OA
ATOM      3  C1  UNK     1      42.177  21.941  11.464  1.00  0.00     0.169 C 
ATOM      4  C2  UNK     1      41.012  21.645  12.406  1.00  0.00     0.121 C 
ATOM      5  C4  UNK     1      41.970  19.308  12.262  1.00  0.00     0.076 A 
ATOM      6  C5  UNK     1      40.774  20.158  12.443  1.00  0.00     0.167 C 
ATOM      7  C6  UNK     1      43.205  19.915  12.019  1.00  0.00     0.089 A 
ATOM      8  C7  UNK     1      41.875  17.919  12.373  1.00  0.00     0.085 A 
ATOM      9  C8  UNK     1      44.356  19.131  11.923  1.00  0.00     0.074 A 
ATOM     10  C11 UNK     1      43.026  17.138  12.255  1.00  0.00     0.074 A 
ATOM     11  C12 UNK     1      44.265  17.743  12.036  1.00  0.00     0.071 A 
ENDROOT
BRANCH   3  12
ATOM     12  C3  UNK     1      42.461  23.427  11.397  1.00  0.00    -0.028 A 
ATOM     13  C9  UNK     1      43.350  23.924  10.444  1.00  0.00     0.012 A 
ATOM     14  C13 UNK     1      43.611  25.293  10.382  1.00  0.00     0.037 A 
ATOM     15  C15 UNK     1      42.984  26.164  11.272  1.00  0.00     0.065 A 
ATOM     16  C14 UNK     1      42.095  25.666  12.226  1.00  0.00     0.037 A 
ATOM     17  C10 UNK     1      41.833  24.297  12.287  1.00  0.00     0.012 A 
BRANCH  15  18
ATOM     18  O5  UNK     1      43.239  27.499  11.213  1.00  0.00    -0.361 OA
ATOM     19  H12 UNK     1      43.508  27.729  10.307  1.00  0.00     0.217 HD
ENDBRANCH  15  18
ENDBRANCH   3  12
BRANCH   8  20
ATOM     20  O3  UNK     1      40.696  17.277  12.604  1.00  0.00    -0.360 OA
ATOM     21  H10 UNK     1      40.844  16.317  12.613  1.00  0.00     0.217 HD
ENDBRANCH   8  20
BRANCH  11  22
ATOM     22  O4  UNK     1      45.385  16.977  11.929  1.00  0.00    -0.361 OA
ATOM     23  H11 UNK     1      45.868  17.235  11.125  1.00  0.00     0.217 HD
ENDBRANCH  11  22
TORSDOF 4
ENDMDL
MODEL 9
REMARK VINA RESULT:      -5.6      4.405      5.645
REMARK  4 active torsions:
REMARK  status: ('A' for Active; 'I' for Inactive)
REMARK    1  A    between atoms: O3_3  and  C7_12 
REMARK    2  A    between atoms: O4_4  and  C12_17 
REMARK    3  A    between atoms: O5_5  and  C15_20 
REMARK    4  A    between atoms: C1_6  and  C3_8 
ROOT
ATOM      1  O1  UNK     1      41.861  21.433  12.143  1.00  0.00    -0.340 OA
ATOM      2  O2  UNK     1      44.817  18.873  10.902  1.00  0.00    -0.292 OA
ATOM      3  C1  UNK     1      43.223  21.878  12.041  1.00  0.00     0.169 C 
ATOM      4  C2  UNK     1      43.968  21.117  10.947  1.00  0.00     0.121 C 
ATOM      5  C4  UNK     1      42.737  19.163  11.981  1.00  0.00     0.076 A 
ATOM      6  C5  UNK     1      43.937  19.644  11.264  1.00  0.00     0.167 C 
ATOM      7  C6  UNK     1      41.756  20.084  12.361  1.00  0.00     0.089 A 
ATOM      8  C7  UNK     1      42.565  17.801  12.240  1.00  0.00     0.085 A 
ATOM      9  C8  UNK     1      40.583  19.637  12.970  1.00  0.00     0.074 A 
ATOM     10  C11 UNK     1      41.399  17.362  12.868  1.00  0.00     0.074 A 
ATOM     11  C12 UNK     1      40.407  18.276  13.227  1.00  0.00     0.071 A 
ENDROOT
BRANCH   3  12
ATOM     12  C3  UNK     1      43.220  23.368  11.764  1.00  0.00    -0.028 A 
ATOM     13  C9  UNK     1      42.761  24.256  12.736  1.00  0.00     0.012 A 
ATOM     14  C13 UNK     1      42.759  25.628  12.481  1.00  0.00     0.037 A 
ATOM     15  C15 UNK     1      43.215  26.110  11.255  1.00  0.00     0.065 A 
ATOM     16  C14 UNK     1      43.673  25.220  10.282  1.00  0.00     0.037 A 
ATOM     17  C10 UNK     1      43.677  23.849  10.538  1.00  0.00     0.012 A 
BRANCH  15  18
ATOM     18  O5  UNK     1      43.212  27.448  11.006  1.00  0.00    -0.361 OA
ATOM     19  H12 UNK     1      44.020  27.679  10.517  1.00  0.00     0.217 HD
ENDBRANCH  15  18
ENDBRANCH   3  12
BRANCH   8  20
ATOM     20  O3  UNK     1      43.490  16.863  11.896  1.00  0.00    -0.360 OA
ATOM     21  H10 UNK     1      44.166  16.803  12.591  1.00  0.00     0.217 HD
ENDBRANCH   8  20
BRANCH  11  22
ATOM     22  O4  UNK     1      39.268  17.841  13.833  1.00  0.00    -0.361 OA
ATOM     23  H11 UNK     1      38.809  17.224  13.236  1.00  0.00     0.217 HD
ENDBRANCH  11  22
TORSDOF 4
ENDMDL
MODEL 10
REMARK VINA RESULT:      -5.6      3.768      7.833
REMARK  4 active torsions:
REMARK  status: ('A' for Active; 'I' for Inactive)
REMARK    1  A    between atoms: O3_3  and  C7_12 
REMARK    2  A    between atoms: O4_4  and  C12_17 
REMARK    3  A    between atoms: O5_5  and  C15_20 
REMARK    4  A    between atoms: C1_6  and  C3_8 
ROOT
ATOM      1  O1  UNK     1      41.517  22.942  12.280  1.00  0.00    -0.340 OA
ATOM      2  O2  UNK     1      44.701  25.216  11.046  1.00  0.00    -0.292 OA
ATOM      3  C1  UNK     1      42.456  22.432  11.321  1.00  0.00     0.169 C 
ATOM      4  C2  UNK     1      43.844  23.030  11.539  1.00  0.00     0.121 C 
ATOM      5  C4  UNK     1      42.481  25.140  11.846  1.00  0.00     0.076 A 
ATOM      6  C5  UNK     1      43.757  24.530  11.418  1.00  0.00     0.167 C 
ATOM      7  C6  UNK     1      41.440  24.311  12.274  1.00  0.00     0.089 A 
ATOM      8  C7  UNK     1      42.331  26.529  11.863  1.00  0.00     0.085 A 
ATOM      9  C8  UNK     1      40.257  24.874  12.754  1.00  0.00     0.074 A 
ATOM     10  C11 UNK     1      41.137  27.086  12.325  1.00  0.00     0.074 A 
ATOM     11  C12 UNK     1      40.105  26.262  12.774  1.00  0.00     0.071 A 
ENDROOT
BRANCH   3  12
ATOM     12  C3  UNK     1      42.488  20.922  11.440  1.00  0.00    -0.028 A 
ATOM     13  C9  UNK     1      43.696  20.238  11.299  1.00  0.00     0.012 A 
ATOM     14  C13 UNK     1      43.725  18.847  11.409  1.00  0.00     0.037 A 
ATOM     15  C15 UNK     1      42.549  18.142  11.659  1.00  0.00     0.065 A 
ATOM     16  C14 UNK     1      41.341  18.827  11.800  1.00  0.00     0.037 A 
ATOM     17  C10 UNK     1      41.312  20.218  11.691  1.00  0.00     0.012 A 
BRANCH  15  18
ATOM     18  O5  UNK     1      42.578  16.786  11.766  1.00  0.00    -0.361 OA
ATOM     19  H12 UNK     1      41.731  16.427  11.450  1.00  0.00     0.217 HD
ENDBRANCH  15  18
ENDBRANCH   3  12
BRANCH   8  20
ATOM     20  O3  UNK     1      43.311  27.381  11.453  1.00  0.00    -0.360 OA
ATOM     21  H10 UNK     1      44.125  26.881  11.279  1.00  0.00     0.217 HD
ENDBRANCH   8  20
BRANCH  11  22
ATOM     22  O4  UNK     1      38.946  26.811  13.230  1.00  0.00    -0.361 OA
ATOM     23  H11 UNK     1      39.148  27.396  13.981  1.00  0.00     0.217 HD
ENDBRANCH  11  22
TORSDOF 4
ENDMDL
MODEL 11
REMARK VINA RESULT:      -5.5      1.765      3.634
REMARK  4 active torsions:
REMARK  status: ('A' for Active; 'I' for Inactive)
REMARK    1  A    between atoms: O3_3  and  C7_12 
REMARK    2  A    between atoms: O4_4  and  C12_17 
REMARK    3  A    between atoms: O5_5  and  C15_20 
REMARK    4  A    between atoms: C1_6  and  C3_8 
ROOT
ATOM      1  O1  UNK     1      39.834  19.755  12.095  1.00  0.00    -0.340 OA
ATOM      2  O2  UNK     1      43.525  20.417  10.431  1.00  0.00    -0.292 OA
ATOM      3  C1  UNK     1      40.290  21.090  11.826  1.00  0.00     0.169 C 
ATOM      4  C2  UNK     1      41.239  21.116  10.630  1.00  0.00     0.121 C 
ATOM      5  C4  UNK     1      42.147  19.051  11.776  1.00  0.00     0.076 A 
ATOM      6  C5  UNK     1      42.419  20.224  10.919  1.00  0.00     0.167 C 
ATOM      7  C6  UNK     1      40.863  18.872  12.297  1.00  0.00     0.089 A 
ATOM      8  C7  UNK     1      43.149  18.110  12.027  1.00  0.00     0.085 A 
ATOM      9  C8  UNK     1      40.570  17.730  13.044  1.00  0.00     0.074 A 
ATOM     10  C11 UNK     1      42.856  16.980  12.792  1.00  0.00     0.074 A 
ATOM     11  C12 UNK     1      41.568  16.787  13.295  1.00  0.00     0.071 A 
ENDROOT
BRANCH   3  12
ATOM     12  C3  UNK     1      39.080  21.969  11.581  1.00  0.00    -0.028 A 
ATOM     13  C9  UNK     1      38.174  21.641  10.573  1.00  0.00     0.012 A 
ATOM     14  C13 UNK     1      37.060  22.450  10.348  1.00  0.00     0.037 A 
ATOM     15  C15 UNK     1      36.852  23.585  11.130  1.00  0.00     0.065 A 
ATOM     16  C14 UNK     1      37.759  23.912  12.139  1.00  0.00     0.037 A 
ATOM     17  C10 UNK     1      38.873  23.103  12.365  1.00  0.00     0.012 A 
BRANCH  15  18
ATOM     18  O5  UNK     1      35.765  24.374  10.911  1.00  0.00    -0.361 OA
ATOM     19  H12 UNK     1      35.022  23.815  10.627  1.00  0.00     0.217 HD
ENDBRANCH  15  18
ENDBRANCH   3  12
BRANCH   8  20
ATOM     20  O3  UNK     1      44.417  18.239  11.547  1.00  0.00    -0.360 OA
ATOM     21  H10 UNK     1      45.053  17.997  12.241  1.00  0.00     0.217 HD
ENDBRANCH   8  20
BRANCH  11  22
ATOM     22  O4  UNK     1      41.286  15.679  14.034  1.00  0.00    -0.361 OA
ATOM     23  H11 UNK     1      40.321  15.564  14.073  1.00  0.00     0.217 HD
ENDBRANCH  11  22
TORSDOF 4
ENDMDL
MODEL 12
REMARK VINA RESULT:      -5.5      4.754      7.953
REMARK  4 active torsions:
REMARK  status: ('A' for Active; 'I' for Inactive)
REMARK    1  A    between atoms: O3_3  and  C7_12 
REMARK    2  A    between atoms: O4_4  and  C12_17 
REMARK    3  A    between atoms: O5_5  and  C15_20 
REMARK    4  A    between atoms: C1_6  and  C3_8 
ROOT
ATOM      1  O1  UNK     1      42.740  22.920  12.711  1.00  0.00    -0.340 OA
ATOM      2  O2  UNK     1      43.697  24.988   9.300  1.00  0.00    -0.292 OA
ATOM      3  C1  UNK     1      42.475  22.361  11.415  1.00  0.00     0.169 C 
ATOM      4  C2  UNK     1      43.487  22.859  10.386  1.00  0.00     0.121 C 
ATOM      5  C4  UNK     1      43.060  25.052  11.572  1.00  0.00     0.076 A 
ATOM      6  C5  UNK     1      43.418  24.363  10.315  1.00  0.00     0.167 C 
ATOM      7  C6  UNK     1      42.763  24.291  12.706  1.00  0.00     0.089 A 
ATOM      8  C7  UNK     1      43.061  26.448  11.640  1.00  0.00     0.085 A 
ATOM      9  C8  UNK     1      42.499  24.927  13.919  1.00  0.00     0.074 A 
ATOM     10  C11 UNK     1      42.775  27.079  12.851  1.00  0.00     0.074 A 
ATOM     11  C12 UNK     1      42.501  26.321  13.990  1.00  0.00     0.071 A 
ENDROOT
BRANCH   3  12
ATOM     12  C3  UNK     1      42.511  20.851  11.529  1.00  0.00    -0.028 A 
ATOM     13  C9  UNK     1      41.332  20.142  11.755  1.00  0.00     0.012 A 
ATOM     14  C13 UNK     1      41.365  18.751  11.860  1.00  0.00     0.037 A 
ATOM     15  C15 UNK     1      42.576  18.071  11.738  1.00  0.00     0.065 A 
ATOM     16  C14 UNK     1      43.756  18.781  11.512  1.00  0.00     0.037 A 
ATOM     17  C10 UNK     1      43.722  20.172  11.407  1.00  0.00     0.012 A 
BRANCH  15  18
ATOM     18  O5  UNK     1      42.609  16.714  11.841  1.00  0.00    -0.361 OA
ATOM     19  H12 UNK     1      42.983  16.472  12.705  1.00  0.00     0.217 HD
ENDBRANCH  15  18
ENDBRANCH   3  12
BRANCH   8  20
ATOM     20  O3  UNK     1      43.338  27.237  10.565  1.00  0.00    -0.360 OA
ATOM     21  H10 UNK     1      42.738  27.014   9.834  1.00  0.00     0.217 HD
ENDBRANCH   8  20
BRANCH  11  22
ATOM     22  O4  UNK     1      42.231  26.942  15.171  1.00  0.00    -0.361 OA
ATOM     23  H11 UNK     1      41.303  27.236  15.168  1.00  0.00     0.217 HD
ENDBRANCH  11  22
TORSDOF 4
ENDMDL
MODEL 13
REMARK VINA RESULT:      -5.5      3.415      4.970
REMARK  4 active torsions:
REMARK  status: ('A' for Active; 'I' for Inactive)
REMARK    1  A    between atoms: O3_3  and  C7_12 
REMARK    2  A    between atoms: O4_4  and  C12_17 
REMARK    3  A    between atoms: O5_5  and  C15_20 
REMARK    4  A    between atoms: C1_6  and  C3_8 
ROOT
ATOM      1  O1  UNK     1      41.367  23.406  11.453  1.00  0.00    -0.340 OA
ATOM      2  O2  UNK     1      45.412  24.088  11.430  1.00  0.00    -0.292 OA
ATOM      3  C1  UNK     1      41.938  24.461  12.243  1.00  0.00     0.169 C 
ATOM      4  C2  UNK     1      43.203  25.011  11.589  1.00  0.00     0.121 C 
ATOM      5  C4  UNK     1      43.636  22.548  11.210  1.00  0.00     0.076 A 
ATOM      6  C5  UNK     1      44.203  23.894  11.433  1.00  0.00     0.167 C 
ATOM      7  C6  UNK     1      42.248  22.384  11.210  1.00  0.00     0.089 A 
ATOM      8  C7  UNK     1      44.475  21.459  10.958  1.00  0.00     0.085 A 
ATOM      9  C8  UNK     1      41.696  21.135  10.924  1.00  0.00     0.074 A 
ATOM     10  C11 UNK     1      43.918  20.207  10.693  1.00  0.00     0.074 A 
ATOM     11  C12 UNK     1      42.532  20.046  10.671  1.00  0.00     0.071 A 
ENDROOT
BRANCH   3  12
ATOM     12  C3  UNK     1      40.896  25.547  12.416  1.00  0.00    -0.028 A 
ATOM     13  C9  UNK     1      41.282  26.887  12.420  1.00  0.00     0.012 A 
ATOM     14  C13 UNK     1      40.322  27.887  12.579  1.00  0.00     0.037 A 
ATOM     15  C15 UNK     1      38.979  27.547  12.734  1.00  0.00     0.065 A 
ATOM     16  C14 UNK     1      38.594  26.206  12.731  1.00  0.00     0.037 A 
ATOM     17  C10 UNK     1      39.553  25.206  12.571  1.00  0.00     0.012 A 
BRANCH  15  18
ATOM     18  O5  UNK     1      38.043  28.523  12.890  1.00  0.00    -0.361 OA
ATOM     19  H12 UNK     1      38.467  29.306  13.281  1.00  0.00     0.217 HD
ENDBRANCH  15  18
ENDBRANCH   3  12
BRANCH   8  20
ATOM     20  O3  UNK     1      45.833  21.562  10.950  1.00  0.00    -0.360 OA
ATOM     21  H10 UNK     1      46.207  20.885  10.363  1.00  0.00     0.217 HD
ENDBRANCH   8  20
BRANCH  11  22
ATOM     22  O4  UNK     1      41.994  18.824  10.404  1.00  0.00    -0.361 OA
ATOM     23  H11 UNK     1      42.384  18.481   9.582  1.00  0.00     0.217 HD
ENDBRANCH  11  22
TORSDOF 4
ENDMDL
MODEL 14
REMARK VINA RESULT:      -5.5      3.264      4.822
REMARK  4 active torsions:
REMARK  status: ('A' for Active; 'I' for Inactive)
REMARK    1  A    between atoms: O3_3  and  C7_12 
REMARK    2  A    between atoms: O4_4  and  C12_17 
REMARK    3  A    between atoms: O5_5  and  C15_20 
REMARK    4  A    between atoms: C1_6  and  C3_8 
ROOT
ATOM      1  O1  UNK     1      41.197  22.719  12.026  1.00  0.00    -0.340 OA
ATOM      2  O2  UNK     1      44.809  21.919  10.252  1.00  0.00    -0.292 OA
ATOM      3  C1  UNK     1      42.278  23.660  12.105  1.00  0.00     0.169 C 
ATOM      4  C2  UNK     1      43.180  23.566  10.875  1.00  0.00     0.121 C 
ATOM      5  C4  UNK     1      42.854  21.090  11.284  1.00  0.00     0.076 A 
ATOM      6  C5  UNK     1      43.730  22.166  10.775  1.00  0.00     0.167 C 
ATOM      7  C6  UNK     1      41.626  21.427  11.861  1.00  0.00     0.089 A 
ATOM      8  C7  UNK     1      43.228  19.751  11.152  1.00  0.00     0.085 A 
ATOM      9  C8  UNK     1      40.755  20.419  12.275  1.00  0.00     0.074 A 
ATOM     10  C11 UNK     1      42.361  18.748  11.587  1.00  0.00     0.074 A 
ATOM     11  C12 UNK     1      41.125  19.080  12.143  1.00  0.00     0.071 A 
ENDROOT
BRANCH   3  12
ATOM     12  C3  UNK     1      41.693  25.050  12.247  1.00  0.00    -0.028 A 
ATOM     13  C9  UNK     1      40.337  25.209  12.531  1.00  0.00     0.012 A 
ATOM     14  C13 UNK     1      39.798  26.489  12.662  1.00  0.00     0.037 A 
ATOM     15  C15 UNK     1      40.614  27.609  12.508  1.00  0.00     0.065 A 
ATOM     16  C14 UNK     1      41.971  27.449  12.224  1.00  0.00     0.037 A 
ATOM     17  C10 UNK     1      42.510  26.169  12.094  1.00  0.00     0.012 A 
BRANCH  15  18
ATOM     18  O5  UNK     1      40.088  28.858  12.635  1.00  0.00    -0.361 OA
ATOM     19  H12 UNK     1      40.797  29.512  12.513  1.00  0.00     0.217 HD
ENDBRANCH  15  18
ENDBRANCH   3  12
BRANCH   8  20
ATOM     20  O3  UNK     1      44.414  19.368  10.602  1.00  0.00    -0.360 OA
ATOM     21  H10 UNK     1      44.544  18.415  10.740  1.00  0.00     0.217 HD
ENDBRANCH   8  20
BRANCH  11  22
ATOM     22  O4  UNK     1      40.280  18.097  12.559  1.00  0.00    -0.361 OA
ATOM     23  H11 UNK     1      39.388  18.282  12.216  1.00  0.00     0.217 HD
ENDBRANCH  11  22
TORSDOF 4
ENDMDL
MODEL 15
REMARK VINA RESULT:      -5.4      3.029      7.657
REMARK  4 active torsions:
REMARK  status: ('A' for Active; 'I' for Inactive)
REMARK    1  A    between atoms: O3_3  and  C7_12 
REMARK    2  A    between atoms: O4_4  and  C12_17 
REMARK    3  A    between atoms: O5_5  and  C15_20 
REMARK    4  A    between atoms: C1_6  and  C3_8 
ROOT
ATOM      1  O1  UNK     1      42.516  20.091  10.424  1.00  0.00    -0.340 OA
ATOM      2  O2  UNK     1      41.308  18.156  13.834  1.00  0.00    -0.292 OA
ATOM      3  C1  UNK     1      43.449  19.813  11.480  1.00  0.00     0.169 C 
ATOM      4  C2  UNK     1      43.057  18.547  12.239  1.00  0.00     0.121 C 
ATOM      5  C4  UNK     1      40.756  19.578  12.032  1.00  0.00     0.076 A 
ATOM      6  C5  UNK     1      41.675  18.725  12.814  1.00  0.00     0.167 C 
ATOM      7  C6  UNK     1      41.223  20.195  10.868  1.00  0.00     0.089 A 
ATOM      8  C7  UNK     1      39.425  19.732  12.427  1.00  0.00     0.085 A 
ATOM      9  C8  UNK     1      40.347  20.940  10.079  1.00  0.00     0.074 A 
ATOM     10  C11 UNK     1      38.558  20.496  11.644  1.00  0.00     0.074 A 
ATOM     11  C12 UNK     1      39.016  21.094  10.470  1.00  0.00     0.071 A 
ENDROOT
BRANCH   3  12
ATOM     12  C3  UNK     1      44.831  19.680  10.875  1.00  0.00    -0.028 A 
ATOM     13  C9  UNK     1      45.742  18.772  11.413  1.00  0.00     0.012 A 
ATOM     14  C13 UNK     1      47.015  18.650  10.855  1.00  0.00     0.037 A 
ATOM     15  C15 UNK     1      47.376  19.435   9.761  1.00  0.00     0.065 A 
ATOM     16  C14 UNK     1      46.463  20.344   9.223  1.00  0.00     0.037 A 
ATOM     17  C10 UNK     1      45.190  20.465   9.780  1.00  0.00     0.012 A 
BRANCH  15  18
ATOM     18  O5  UNK     1      48.618  19.317   9.217  1.00  0.00    -0.361 OA
ATOM     19  H12 UNK     1      48.947  18.415   9.375  1.00  0.00     0.217 HD
ENDBRANCH  15  18
ENDBRANCH   3  12
BRANCH   8  20
ATOM     20  O3  UNK     1      38.920  19.157  13.554  1.00  0.00    -0.360 OA
ATOM     21  H10 UNK     1      37.959  19.299  13.589  1.00  0.00     0.217 HD
ENDBRANCH   8  20
BRANCH  11  22
ATOM     22  O4  UNK     1      38.164  21.832   9.705  1.00  0.00    -0.361 OA
ATOM     23  H11 UNK     1      38.008  21.364   8.867  1.00  0.00     0.217 HD
ENDBRANCH  11  22
TORSDOF 4
ENDMDL
MODEL 16
REMARK VINA RESULT:      -5.4      2.061      3.598
REMARK  4 active torsions:
REMARK  status: ('A' for Active; 'I' for Inactive)
REMARK    1  A    between atoms: O3_3  and  C7_12 
REMARK    2  A    between atoms: O4_4  and  C12_17 
REMARK    3  A    between atoms: O5_5  and  C15_20 
REMARK    4  A    between atoms: C1_6  and  C3_8 
ROOT
ATOM      1  O1  UNK     1      40.368  20.483  11.439  1.00  0.00    -0.340 OA
ATOM      2  O2  UNK     1      43.907  22.491  10.920  1.00  0.00    -0.292 OA
ATOM      3  C1  UNK     1      40.468  21.883  11.739  1.00  0.00     0.169 C 
ATOM      4  C2  UNK     1      41.510  22.561  10.852  1.00  0.00     0.121 C 
ATOM      5  C4  UNK     1      42.806  20.459  11.401  1.00  0.00     0.076 A 
ATOM      6  C5  UNK     1      42.846  21.898  11.068  1.00  0.00     0.167 C 
ATOM      7  C6  UNK     1      41.568  19.828  11.546  1.00  0.00     0.089 A 
ATOM      8  C7  UNK     1      43.990  19.729  11.528  1.00  0.00     0.085 A 
ATOM      9  C8  UNK     1      41.513  18.454  11.784  1.00  0.00     0.074 A 
ATOM     10  C11 UNK     1      43.930  18.359  11.787  1.00  0.00     0.074 A 
ATOM     11  C12 UNK     1      42.694  17.721  11.909  1.00  0.00     0.071 A 
ENDROOT
BRANCH   3  12
ATOM     12  C3  UNK     1      39.101  22.511  11.552  1.00  0.00    -0.028 A 
ATOM     13  C9  UNK     1      38.213  21.979  10.618  1.00  0.00     0.012 A 
ATOM     14  C13 UNK     1      36.954  22.557  10.447  1.00  0.00     0.037 A 
ATOM     15  C15 UNK     1      36.586  23.665  11.209  1.00  0.00     0.065 A 
ATOM     16  C14 UNK     1      37.476  24.197  12.143  1.00  0.00     0.037 A 
ATOM     17  C10 UNK     1      38.734  23.618  12.315  1.00  0.00     0.012 A 
BRANCH  15  18
ATOM     18  O5  UNK     1      35.359  24.229  11.042  1.00  0.00    -0.361 OA
ATOM     19  H12 UNK     1      35.441  24.991  10.443  1.00  0.00     0.217 HD
ENDBRANCH  15  18
ENDBRANCH   3  12
BRANCH   8  20
ATOM     20  O3  UNK     1      45.222  20.295  11.401  1.00  0.00    -0.360 OA
ATOM     21  H10 UNK     1      45.289  20.740  10.541  1.00  0.00     0.217 HD
ENDBRANCH   8  20
BRANCH  11  22
ATOM     22  O4  UNK     1      42.641  16.383  12.154  1.00  0.00    -0.361 OA
ATOM     23  H11 UNK     1      42.277  15.933  11.372  1.00  0.00     0.217 HD
ENDBRANCH  11  22
TORSDOF 4
ENDMDL
MODEL 17
REMARK VINA RESULT:      -5.4      1.656      2.904
REMARK  4 active torsions:
REMARK  status: ('A' for Active; 'I' for Inactive)
REMARK    1  A    between atoms: O3_3  and  C7_12 
REMARK    2  A    between atoms: O4_4  and  C12_17 
REMARK    3  A    between atoms: O5_5  and  C15_20 
REMARK    4  A    between atoms: C1_6  and  C3_8 
ROOT
ATOM      1  O1  UNK     1      37.419  21.433  12.398  1.00  0.00    -0.340 OA
ATOM      2  O2  UNK     1      39.817  21.096   9.087  1.00  0.00    -0.292 OA
ATOM      3  C1  UNK     1      37.514  22.506  11.448  1.00  0.00     0.169 C 
ATOM      4  C2  UNK     1      37.801  21.973  10.046  1.00  0.00     0.121 C 
ATOM      5  C4  UNK     1      39.404  20.500  11.334  1.00  0.00     0.076 A 
ATOM      6  C5  UNK     1      39.092  21.198  10.069  1.00  0.00     0.167 C 
ATOM      7  C6  UNK     1      38.537  20.640  12.421  1.00  0.00     0.089 A 
ATOM      8  C7  UNK     1      40.529  19.677  11.430  1.00  0.00     0.085 A 
ATOM      9  C8  UNK     1      38.776  19.927  13.596  1.00  0.00     0.074 A 
ATOM     10  C11 UNK     1      40.775  18.983  12.615  1.00  0.00     0.074 A 
ATOM     11  C12 UNK     1      39.898  19.103  13.694  1.00  0.00     0.071 A 
ENDROOT
BRANCH   3  12
ATOM     12  C3  UNK     1      36.217  23.289  11.480  1.00  0.00    -0.028 A 
ATOM     13  C9  UNK     1      35.845  24.062  10.381  1.00  0.00     0.012 A 
ATOM     14  C13 UNK     1      34.650  24.784  10.410  1.00  0.00     0.037 A 
ATOM     15  C15 UNK     1      33.831  24.732  11.537  1.00  0.00     0.065 A 
ATOM     16  C14 UNK     1      34.206  23.958  12.637  1.00  0.00     0.037 A 
ATOM     17  C10 UNK     1      35.399  23.236  12.607  1.00  0.00     0.012 A 
BRANCH  15  18
ATOM     18  O5  UNK     1      32.667  25.436  11.566  1.00  0.00    -0.361 OA
ATOM     19  H12 UNK     1      32.302  25.478  10.665  1.00  0.00     0.217 HD
ENDBRANCH  15  18
ENDBRANCH   3  12
BRANCH   8  20
ATOM     20  O3  UNK     1      41.409  19.509  10.404  1.00  0.00    -0.360 OA
ATOM     21  H10 UNK     1      42.308  19.413  10.758  1.00  0.00     0.217 HD
ENDBRANCH   8  20
BRANCH  11  22
ATOM     22  O4  UNK     1      40.139  18.417  14.845  1.00  0.00    -0.361 OA
ATOM     23  H11 UNK     1      41.077  18.517  15.082  1.00  0.00     0.217 HD
ENDBRANCH  11  22
TORSDOF 4
ENDMDL
MODEL 18
REMARK VINA RESULT:      -5.3      4.608      8.769
REMARK  4 active torsions:
REMARK  status: ('A' for Active; 'I' for Inactive)
REMARK    1  A    between atoms: O3_3  and  C7_12 
REMARK    2  A    between atoms: O4_4  and  C12_17 
REMARK    3  A    between atoms: O5_5  and  C15_20 
REMARK    4  A    between atoms: C1_6  and  C3_8 
ROOT
ATOM      1  O1  UNK     1      44.812  22.831  10.415  1.00  0.00    -0.340 OA
ATOM      2  O2  UNK     1      41.287  21.279  11.825  1.00  0.00    -0.292 OA
ATOM      3  C1  UNK     1      44.763  21.508  10.970  1.00  0.00     0.169 C 
ATOM      4  C2  UNK     1      43.392  20.872  10.750  1.00  0.00     0.121 C 
ATOM      5  C4  UNK     1      42.620  23.185  11.422  1.00  0.00     0.076 A 
ATOM      6  C5  UNK     1      42.340  21.734  11.397  1.00  0.00     0.167 C 
ATOM      7  C6  UNK     1      43.833  23.653  10.908  1.00  0.00     0.089 A 
ATOM      8  C7  UNK     1      41.668  24.082  11.913  1.00  0.00     0.085 A 
ATOM      9  C8  UNK     1      44.079  25.026  10.854  1.00  0.00     0.074 A 
ATOM     10  C11 UNK     1      41.929  25.452  11.875  1.00  0.00     0.074 A 
ATOM     11  C12 UNK     1      43.129  25.924  11.342  1.00  0.00     0.071 A 
ENDROOT
BRANCH   3  12
ATOM     12  C3  UNK     1      45.858  20.680  10.330  1.00  0.00    -0.028 A 
ATOM     13  C9  UNK     1      46.376  21.050   9.089  1.00  0.00     0.012 A 
ATOM     14  C13 UNK     1      47.385  20.287   8.500  1.00  0.00     0.037 A 
ATOM     15  C15 UNK     1      47.875  19.156   9.151  1.00  0.00     0.065 A 
ATOM     16  C14 UNK     1      47.356  18.786  10.393  1.00  0.00     0.037 A 
ATOM     17  C10 UNK     1      46.348  19.550  10.982  1.00  0.00     0.012 A 
BRANCH  15  18
ATOM     18  O5  UNK     1      48.859  18.412   8.577  1.00  0.00    -0.361 OA
ATOM     19  H12 UNK     1      48.594  17.476   8.589  1.00  0.00     0.217 HD
ENDBRANCH  15  18
ENDBRANCH   3  12
BRANCH   8  20
ATOM     20  O3  UNK     1      40.473  23.679  12.428  1.00  0.00    -0.360 OA
ATOM     21  H10 UNK     1      40.539  23.621  13.396  1.00  0.00     0.217 HD
ENDBRANCH   8  20
BRANCH  11  22
ATOM     22  O4  UNK     1      43.375  27.263  11.300  1.00  0.00    -0.361 OA
ATOM     23  H11 UNK     1      42.687  27.726  11.809  1.00  0.00     0.217 HD
ENDBRANCH  11  22
TORSDOF 4
ENDMDL
MODEL 19
REMARK VINA RESULT:      -5.3      4.812      8.219
REMARK  4 active torsions:
REMARK  status: ('A' for Active; 'I' for Inactive)
REMARK    1  A    between atoms: O3_3  and  C7_12 
REMARK    2  A    between atoms: O4_4  and  C12_17 
REMARK    3  A    between atoms: O5_5  and  C15_20 
REMARK    4  A    between atoms: C1_6  and  C3_8 
ROOT
ATOM      1  O1  UNK     1      44.386  18.769  11.664  1.00  0.00    -0.340 OA
ATOM      2  O2  UNK     1      41.131  21.135  10.866  1.00  0.00    -0.292 OA
ATOM      3  C1  UNK     1      44.340  19.578  10.478  1.00  0.00     0.169 C 
ATOM      4  C2  UNK     1      43.506  20.837  10.706  1.00  0.00     0.121 C 
ATOM      5  C4  UNK     1      41.991  19.179  11.870  1.00  0.00     0.076 A 
ATOM      6  C5  UNK     1      42.109  20.437  11.104  1.00  0.00     0.167 C 
ATOM      7  C6  UNK     1      43.142  18.427  12.125  1.00  0.00     0.089 A 
ATOM      8  C7  UNK     1      40.754  18.767  12.370  1.00  0.00     0.085 A 
ATOM      9  C8  UNK     1      43.059  17.278  12.912  1.00  0.00     0.074 A 
ATOM     10  C11 UNK     1      40.673  17.605  13.138  1.00  0.00     0.074 A 
ATOM     11  C12 UNK     1      41.824  16.864  13.414  1.00  0.00     0.071 A 
ENDROOT
BRANCH   3  12
ATOM     12  C3  UNK     1      45.759  19.928  10.081  1.00  0.00    -0.028 A 
ATOM     13  C9  UNK     1      45.989  20.872   9.081  1.00  0.00     0.012 A 
ATOM     14  C13 UNK     1      47.297  21.194   8.716  1.00  0.00     0.037 A 
ATOM     15  C15 UNK     1      48.372  20.572   9.349  1.00  0.00     0.065 A 
ATOM     16  C14 UNK     1      48.140  19.627  10.349  1.00  0.00     0.037 A 
ATOM     17  C10 UNK     1      46.833  19.306  10.715  1.00  0.00     0.012 A 
BRANCH  15  18
ATOM     18  O5  UNK     1      49.647  20.886   8.992  1.00  0.00    -0.361 OA
ATOM     19  H12 UNK     1      49.689  20.985   8.026  1.00  0.00     0.217 HD
ENDBRANCH  15  18
ENDBRANCH   3  12
BRANCH   8  20
ATOM     20  O3  UNK     1      39.602  19.459  12.146  1.00  0.00    -0.360 OA
ATOM     21  H10 UNK     1      39.603  19.808  11.240  1.00  0.00     0.217 HD
ENDBRANCH   8  20
BRANCH  11  22
ATOM     22  O4  UNK     1      41.741  15.736  14.171  1.00  0.00    -0.361 OA
ATOM     23  H11 UNK     1      40.812  15.594  14.425  1.00  0.00     0.217 HD
ENDBRANCH  11  22
TORSDOF 4
ENDMDL
