MODEL 1
REMARK VINA RESULT:      -6.0      0.000      0.000
REMARK  4 active torsions:
REMARK  status: ('A' for Active; 'I' for Inactive)
REMARK    1  A    between atoms: O3_3  and  C7_12 
REMARK    2  A    between atoms: O4_4  and  C12_17 
REMARK    3  A    between atoms: O5_5  and  C15_20 
REMARK    4  A    between atoms: C1_6  and  C3_8 
ROOT
ATOM      1  O1  UNK     1      44.082   1.677   7.607  1.00  0.00    -0.340 OA
ATOM      2  O2  UNK     1      45.518   0.894  11.368  1.00  0.00    -0.292 OA
ATOM      3  C1  UNK     1      43.383   0.785   8.488  1.00  0.00     0.169 C 
ATOM      4  C2  UNK     1      43.604   1.171   9.949  1.00  0.00     0.121 C 
ATOM      5  C4  UNK     1      45.978   1.470   9.126  1.00  0.00     0.076 A 
ATOM      6  C5  UNK     1      45.080   1.132  10.250  1.00  0.00     0.167 C 
ATOM      7  C6  UNK     1      45.425   1.746   7.872  1.00  0.00     0.089 A 
ATOM      8  C7  UNK     1      47.358   1.556   9.323  1.00  0.00     0.085 A 
ATOM      9  C8  UNK     1      46.252   2.142   6.821  1.00  0.00     0.074 A 
ATOM     10  C11 UNK     1      48.183   1.932   8.262  1.00  0.00     0.074 A 
ATOM     11  C12 UNK     1      47.632   2.230   7.015  1.00  0.00     0.071 A 
ENDROOT
BRANCH   3  12
ATOM     12  C3  UNK     1      41.911   0.816   8.132  1.00  0.00    -0.028 A 
ATOM     13  C9  UNK     1      41.127  -0.324   8.311  1.00  0.00     0.012 A 
ATOM     14  C13 UNK     1      39.771  -0.294   7.983  1.00  0.00     0.037 A 
ATOM     15  C15 UNK     1      39.200   0.873   7.478  1.00  0.00     0.065 A 
ATOM     16  C14 UNK     1      39.986   2.013   7.300  1.00  0.00     0.037 A 
ATOM     17  C10 UNK     1      41.341   1.984   7.628  1.00  0.00     0.012 A 
BRANCH  15  18
ATOM     18  O5  UNK     1      37.878   0.902   7.158  1.00  0.00    -0.361 OA
ATOM     19  H12 UNK     1      37.534   1.797   7.317  1.00  0.00     0.217 HD
ENDBRANCH  15  18
ENDBRANCH   3  12
BRANCH   8  20
ATOM     20  O3  UNK     1      47.949   1.293  10.522  1.00  0.00    -0.360 OA
ATOM     21  H10 UNK     1      47.282   1.331  11.228  1.00  0.00     0.217 HD
ENDBRANCH   8  20
BRANCH  11  22
ATOM     22  O4  UNK     1      48.441   2.604   5.986  1.00  0.00    -0.361 OA
ATOM     23  H11 UNK     1      48.608   3.560   6.048  1.00  0.00     0.217 HD
ENDBRANCH  11  22
TORSDOF 4
ENDMDL
MODEL 2
REMARK VINA RESULT:      -6.0      0.006      1.080
REMARK  4 active torsions:
REMARK  status: ('A' for Active; 'I' for Inactive)
REMARK    1  A    between atoms: O3_3  and  C7_12 
REMARK    2  A    between atoms: O4_4  and  C12_17 
REMARK    3  A    between atoms: O5_5  and  C15_20 
REMARK    4  A    between atoms: C1_6  and  C3_8 
ROOT
ATOM      1  O1  UNK     1      44.079   1.676   7.611  1.00  0.00    -0.340 OA
ATOM      2  O2  UNK     1      45.513   0.889  11.372  1.00  0.00    -0.292 OA
ATOM      3  C1  UNK     1      43.380   0.782   8.490  1.00  0.00     0.169 C 
ATOM      4  C2  UNK     1      43.600   1.167   9.952  1.00  0.00     0.121 C 
ATOM      5  C4  UNK     1      45.974   1.468   9.131  1.00  0.00     0.076 A 
ATOM      6  C5  UNK     1      45.076   1.127  10.254  1.00  0.00     0.167 C 
ATOM      7  C6  UNK     1      45.422   1.744   7.877  1.00  0.00     0.089 A 
ATOM      8  C7  UNK     1      47.354   1.553   9.328  1.00  0.00     0.085 A 
ATOM      9  C8  UNK     1      46.250   2.142   6.826  1.00  0.00     0.074 A 
ATOM     10  C11 UNK     1      48.180   1.931   8.269  1.00  0.00     0.074 A 
ATOM     11  C12 UNK     1      47.629   2.231   7.022  1.00  0.00     0.071 A 
ENDROOT
BRANCH   3  12
ATOM     12  C3  UNK     1      41.908   0.813   8.134  1.00  0.00    -0.028 A 
ATOM     13  C9  UNK     1      41.339   1.982   7.628  1.00  0.00     0.012 A 
ATOM     14  C13 UNK     1      39.983   2.011   7.299  1.00  0.00     0.037 A 
ATOM     15  C15 UNK     1      39.198   0.872   7.476  1.00  0.00     0.065 A 
ATOM     16  C14 UNK     1      39.768  -0.297   7.982  1.00  0.00     0.037 A 
ATOM     17  C10 UNK     1      41.124  -0.325   8.310  1.00  0.00     0.012 A 
BRANCH  15  18
ATOM     18  O5  UNK     1      37.875   0.900   7.156  1.00  0.00    -0.361 OA
ATOM     19  H12 UNK     1      37.786   0.972   6.191  1.00  0.00     0.217 HD
ENDBRANCH  15  18
ENDBRANCH   3  12
BRANCH   8  20
ATOM     20  O3  UNK     1      47.944   1.290  10.527  1.00  0.00    -0.360 OA
ATOM     21  H10 UNK     1      47.643   0.426  10.855  1.00  0.00     0.217 HD
ENDBRANCH   8  20
BRANCH  11  22
ATOM     22  O4  UNK     1      48.438   2.606   5.993  1.00  0.00    -0.361 OA
ATOM     23  H11 UNK     1      49.364   2.441   6.244  1.00  0.00     0.217 HD
ENDBRANCH  11  22
TORSDOF 4
ENDMDL
MODEL 3
REMARK VINA RESULT:      -6.0      2.068      6.906
REMARK  4 active torsions:
REMARK  status: ('A' for Active; 'I' for Inactive)
REMARK    1  A    between atoms: O3_3  and  C7_12 
REMARK    2  A    between atoms: O4_4  and  C12_17 
REMARK    3  A    between atoms: O5_5  and  C15_20 
REMARK    4  A    between atoms: C1_6  and  C3_8 
ROOT
ATOM      1  O1  UNK     1      43.917   0.133   9.114  1.00  0.00    -0.340 OA
ATOM      2  O2  UNK     1      40.870   2.203   7.310  1.00  0.00    -0.292 OA
ATOM      3  C1  UNK     1      44.170   0.960   7.968  1.00  0.00     0.169 C 
ATOM      4  C2  UNK     1      43.191   2.131   7.911  1.00  0.00     0.121 C 
ATOM      5  C4  UNK     1      41.552   0.313   8.549  1.00  0.00     0.076 A 
ATOM      6  C5  UNK     1      41.784   1.594   7.850  1.00  0.00     0.167 C 
ATOM      7  C6  UNK     1      42.629  -0.334   9.161  1.00  0.00     0.089 A 
ATOM      8  C7  UNK     1      40.265  -0.224   8.635  1.00  0.00     0.085 A 
ATOM      9  C8  UNK     1      42.413  -1.504   9.890  1.00  0.00     0.074 A 
ATOM     10  C11 UNK     1      40.058  -1.405   9.347  1.00  0.00     0.074 A 
ATOM     11  C12 UNK     1      41.127  -2.042   9.978  1.00  0.00     0.071 A 
ENDROOT
BRANCH   3  12
ATOM     12  C3  UNK     1      45.602   1.449   8.037  1.00  0.00    -0.028 A 
ATOM     13  C9  UNK     1      46.430   1.033   9.080  1.00  0.00     0.012 A 
ATOM     14  C13 UNK     1      47.749   1.483   9.143  1.00  0.00     0.037 A 
ATOM     15  C15 UNK     1      48.239   2.348   8.166  1.00  0.00     0.065 A 
ATOM     16  C14 UNK     1      47.409   2.765   7.123  1.00  0.00     0.037 A 
ATOM     17  C10 UNK     1      46.091   2.314   7.060  1.00  0.00     0.012 A 
BRANCH  15  18
ATOM     18  O5  UNK     1      49.526   2.788   8.228  1.00  0.00    -0.361 OA
ATOM     19  H12 UNK     1      49.631   3.344   9.018  1.00  0.00     0.217 HD
ENDBRANCH  15  18
ENDBRANCH   3  12
BRANCH   8  20
ATOM     20  O3  UNK     1      39.182   0.363   8.054  1.00  0.00    -0.360 OA
ATOM     21  H10 UNK     1      39.472   0.920   7.312  1.00  0.00     0.217 HD
ENDBRANCH   8  20
BRANCH  11  22
ATOM     22  O4  UNK     1      40.918  -3.190  10.679  1.00  0.00    -0.361 OA
ATOM     23  H11 UNK     1      39.991  -3.216  10.973  1.00  0.00     0.217 HD
ENDBRANCH  11  22
TORSDOF 4
ENDMDL
MODEL 4
REMARK VINA RESULT:      -5.9      1.780      7.253
REMARK  4 active torsions:
REMARK  status: ('A' for Active; 'I' for Inactive)
REMARK    1  A    between atoms: O3_3  and  C7_12 
REMARK    2  A    between atoms: O4_4  and  C12_17 
REMARK    3  A    between atoms: O5_5  and  C15_20 
REMARK    4  A    between atoms: C1_6  and  C3_8 
ROOT
ATOM      1  O1  UNK     1      42.120  -0.187   8.644  1.00  0.00    -0.340 OA
ATOM      2  O2  UNK     1      39.350   2.385   7.052  1.00  0.00    -0.292 OA
ATOM      3  C1  UNK     1      42.512   0.819   7.698  1.00  0.00     0.169 C 
ATOM      4  C2  UNK     1      41.606   2.044   7.794  1.00  0.00     0.121 C 
ATOM      5  C4  UNK     1      39.824   0.256   7.956  1.00  0.00     0.076 A 
ATOM      6  C5  UNK     1      40.182   1.625   7.532  1.00  0.00     0.167 C 
ATOM      7  C6  UNK     1      40.810  -0.565   8.509  1.00  0.00     0.089 A 
ATOM      8  C7  UNK     1      38.507  -0.198   7.846  1.00  0.00     0.085 A 
ATOM      9  C8  UNK     1      40.470  -1.832   8.985  1.00  0.00     0.074 A 
ATOM     10  C11 UNK     1      38.177  -1.474   8.304  1.00  0.00     0.074 A 
ATOM     11  C12 UNK     1      39.155  -2.288   8.878  1.00  0.00     0.071 A 
ENDROOT
BRANCH   3  12
ATOM     12  C3  UNK     1      43.958   1.187   7.961  1.00  0.00    -0.028 A 
ATOM     13  C9  UNK     1      44.603   0.702   9.098  1.00  0.00     0.012 A 
ATOM     14  C13 UNK     1      45.935   1.041   9.340  1.00  0.00     0.037 A 
ATOM     15  C15 UNK     1      46.619   1.864   8.447  1.00  0.00     0.065 A 
ATOM     16  C14 UNK     1      45.972   2.349   7.309  1.00  0.00     0.037 A 
ATOM     17  C10 UNK     1      44.641   2.009   7.067  1.00  0.00     0.012 A 
BRANCH  15  18
ATOM     18  O5  UNK     1      47.918   2.195   8.683  1.00  0.00    -0.361 OA
ATOM     19  H12 UNK     1      48.494   1.558   8.227  1.00  0.00     0.217 HD
ENDBRANCH  15  18
ENDBRANCH   3  12
BRANCH   8  20
ATOM     20  O3  UNK     1      37.509   0.560   7.310  1.00  0.00    -0.360 OA
ATOM     21  H10 UNK     1      37.237   1.238   7.950  1.00  0.00     0.217 HD
ENDBRANCH   8  20
BRANCH  11  22
ATOM     22  O4  UNK     1      38.827  -3.529   9.331  1.00  0.00    -0.361 OA
ATOM     23  H11 UNK     1      38.457  -3.450  10.228  1.00  0.00     0.217 HD
ENDBRANCH  11  22
TORSDOF 4
ENDMDL
MODEL 5
REMARK VINA RESULT:      -5.9      3.314      6.732
REMARK  4 active torsions:
REMARK  status: ('A' for Active; 'I' for Inactive)
REMARK    1  A    between atoms: O3_3  and  C7_12 
REMARK    2  A    between atoms: O4_4  and  C12_17 
REMARK    3  A    between atoms: O5_5  and  C15_20 
REMARK    4  A    between atoms: C1_6  and  C3_8 
ROOT
ATOM      1  O1  UNK     1      42.054   1.141   9.459  1.00  0.00    -0.340 OA
ATOM      2  O2  UNK     1      39.042   1.278   6.677  1.00  0.00    -0.292 OA
ATOM      3  C1  UNK     1      42.018   2.179   8.467  1.00  0.00     0.169 C 
ATOM      4  C2  UNK     1      40.582   2.496   8.057  1.00  0.00     0.121 C 
ATOM      5  C4  UNK     1      40.404  -0.028   8.097  1.00  0.00     0.076 A 
ATOM      6  C5  UNK     1      39.939   1.247   7.511  1.00  0.00     0.167 C 
ATOM      7  C6  UNK     1      41.421  -0.006   9.055  1.00  0.00     0.089 A 
ATOM      8  C7  UNK     1      39.806  -1.236   7.730  1.00  0.00     0.085 A 
ATOM      9  C8  UNK     1      41.818  -1.192   9.673  1.00  0.00     0.074 A 
ATOM     10  C11 UNK     1      40.221  -2.422   8.336  1.00  0.00     0.074 A 
ATOM     11  C12 UNK     1      41.221  -2.400   9.309  1.00  0.00     0.071 A 
ENDROOT
BRANCH   3  12
ATOM     12  C3  UNK     1      42.708   3.404   9.031  1.00  0.00    -0.028 A 
ATOM     13  C9  UNK     1      42.021   4.251   9.900  1.00  0.00     0.012 A 
ATOM     14  C13 UNK     1      42.657   5.379  10.419  1.00  0.00     0.037 A 
ATOM     15  C15 UNK     1      43.977   5.660  10.069  1.00  0.00     0.065 A 
ATOM     16  C14 UNK     1      44.663   4.812   9.199  1.00  0.00     0.037 A 
ATOM     17  C10 UNK     1      44.028   3.683   8.680  1.00  0.00     0.012 A 
BRANCH  15  18
ATOM     18  O5  UNK     1      44.597   6.761  10.575  1.00  0.00    -0.361 OA
ATOM     19  H12 UNK     1      44.677   7.428   9.873  1.00  0.00     0.217 HD
ENDBRANCH  15  18
ENDBRANCH   3  12
BRANCH   8  20
ATOM     20  O3  UNK     1      38.815  -1.314   6.799  1.00  0.00    -0.360 OA
ATOM     21  H10 UNK     1      37.962  -1.104   7.213  1.00  0.00     0.217 HD
ENDBRANCH   8  20
BRANCH  11  22
ATOM     22  O4  UNK     1      41.617  -3.560   9.903  1.00  0.00    -0.361 OA
ATOM     23  H11 UNK     1      42.484  -3.818   9.544  1.00  0.00     0.217 HD
ENDBRANCH  11  22
TORSDOF 4
ENDMDL
MODEL 6
REMARK VINA RESULT:      -5.9      1.837      6.826
REMARK  4 active torsions:
REMARK  status: ('A' for Active; 'I' for Inactive)
REMARK    1  A    between atoms: O3_3  and  C7_12 
REMARK    2  A    between atoms: O4_4  and  C12_17 
REMARK    3  A    between atoms: O5_5  and  C15_20 
REMARK    4  A    between atoms: C1_6  and  C3_8 
ROOT
ATOM      1  O1  UNK     1      42.543   0.940   7.962  1.00  0.00    -0.340 OA
ATOM      2  O2  UNK     1      40.995  -1.726  10.668  1.00  0.00    -0.292 OA
ATOM      3  C1  UNK     1      43.224   0.669   9.197  1.00  0.00     0.169 C 
ATOM      4  C2  UNK     1      42.950  -0.756   9.673  1.00  0.00     0.121 C 
ATOM      5  C4  UNK     1      40.601  -0.152   8.954  1.00  0.00     0.076 A 
ATOM      6  C5  UNK     1      41.466  -0.936   9.860  1.00  0.00     0.167 C 
ATOM      7  C6  UNK     1      41.191   0.726   8.040  1.00  0.00     0.089 A 
ATOM      8  C7  UNK     1      39.214  -0.317   8.980  1.00  0.00     0.085 A 
ATOM      9  C8  UNK     1      40.394   1.416   7.126  1.00  0.00     0.074 A 
ATOM     10  C11 UNK     1      38.420   0.392   8.077  1.00  0.00     0.074 A 
ATOM     11  C12 UNK     1      39.008   1.252   7.149  1.00  0.00     0.071 A 
ENDROOT
BRANCH   3  12
ATOM     12  C3  UNK     1      44.706   0.899   8.987  1.00  0.00    -0.028 A 
ATOM     13  C9  UNK     1      45.149   1.615   7.875  1.00  0.00     0.012 A 
ATOM     14  C13 UNK     1      46.514   1.827   7.682  1.00  0.00     0.037 A 
ATOM     15  C15 UNK     1      47.435   1.324   8.600  1.00  0.00     0.065 A 
ATOM     16  C14 UNK     1      46.991   0.608   9.712  1.00  0.00     0.037 A 
ATOM     17  C10 UNK     1      45.626   0.397   9.906  1.00  0.00     0.012 A 
BRANCH  15  18
ATOM     18  O5  UNK     1      48.767   1.531   8.411  1.00  0.00    -0.361 OA
ATOM     19  H12 UNK     1      48.887   2.208   7.724  1.00  0.00     0.217 HD
ENDBRANCH  15  18
ENDBRANCH   3  12
BRANCH   8  20
ATOM     20  O3  UNK     1      38.588  -1.155   9.852  1.00  0.00    -0.360 OA
ATOM     21  H10 UNK     1      39.103  -1.212  10.674  1.00  0.00     0.217 HD
ENDBRANCH   8  20
BRANCH  11  22
ATOM     22  O4  UNK     1      38.228   1.934   6.265  1.00  0.00    -0.361 OA
ATOM     23  H11 UNK     1      37.634   1.306   5.819  1.00  0.00     0.217 HD
ENDBRANCH  11  22
TORSDOF 4
ENDMDL
MODEL 7
REMARK VINA RESULT:      -5.8      2.511      6.992
REMARK  4 active torsions:
REMARK  status: ('A' for Active; 'I' for Inactive)
REMARK    1  A    between atoms: O3_3  and  C7_12 
REMARK    2  A    between atoms: O4_4  and  C12_17 
REMARK    3  A    between atoms: O5_5  and  C15_20 
REMARK    4  A    between atoms: C1_6  and  C3_8 
ROOT
ATOM      1  O1  UNK     1      41.392  -0.116   8.031  1.00  0.00    -0.340 OA
ATOM      2  O2  UNK     1      41.605  -2.601  11.287  1.00  0.00    -0.292 OA
ATOM      3  C1  UNK     1      42.359   0.114   9.067  1.00  0.00     0.169 C 
ATOM      4  C2  UNK     1      42.773  -1.198   9.732  1.00  0.00     0.121 C 
ATOM      5  C4  UNK     1      40.284  -1.627   9.591  1.00  0.00     0.076 A 
ATOM      6  C5  UNK     1      41.551  -1.862  10.313  1.00  0.00     0.167 C 
ATOM      7  C6  UNK     1      40.281  -0.784   8.476  1.00  0.00     0.089 A 
ATOM      8  C7  UNK     1      39.111  -2.272   9.991  1.00  0.00     0.085 A 
ATOM      9  C8  UNK     1      39.109  -0.613   7.738  1.00  0.00     0.074 A 
ATOM     10  C11 UNK     1      37.936  -2.081   9.262  1.00  0.00     0.074 A 
ATOM     11  C12 UNK     1      37.936  -1.258   8.134  1.00  0.00     0.071 A 
ENDROOT
BRANCH   3  12
ATOM     12  C3  UNK     1      43.554   0.819   8.459  1.00  0.00    -0.028 A 
ATOM     13  C9  UNK     1      44.797   0.749   9.088  1.00  0.00     0.012 A 
ATOM     14  C13 UNK     1      45.898   1.398   8.528  1.00  0.00     0.037 A 
ATOM     15  C15 UNK     1      45.755   2.115   7.341  1.00  0.00     0.065 A 
ATOM     16  C14 UNK     1      44.511   2.184   6.713  1.00  0.00     0.037 A 
ATOM     17  C10 UNK     1      43.411   1.535   7.272  1.00  0.00     0.012 A 
BRANCH  15  18
ATOM     18  O5  UNK     1      46.829   2.749   6.795  1.00  0.00    -0.361 OA
ATOM     19  H12 UNK     1      47.582   2.134   6.778  1.00  0.00     0.217 HD
ENDBRANCH  15  18
ENDBRANCH   3  12
BRANCH   8  20
ATOM     20  O3  UNK     1      39.057  -3.099  11.071  1.00  0.00    -0.360 OA
ATOM     21  H10 UNK     1      38.919  -4.014  10.774  1.00  0.00     0.217 HD
ENDBRANCH   8  20
BRANCH  11  22
ATOM     22  O4  UNK     1      36.790  -1.081   7.422  1.00  0.00    -0.361 OA
ATOM     23  H11 UNK     1      36.186  -0.512   7.931  1.00  0.00     0.217 HD
ENDBRANCH  11  22
TORSDOF 4
ENDMDL
MODEL 8
REMARK VINA RESULT:      -5.7      2.336      7.275
REMARK  4 active torsions:
REMARK  status: ('A' for Active; 'I' for Inactive)
REMARK    1  A    between atoms: O3_3  and  C7_12 
REMARK    2  A    between atoms: O4_4  and  C12_17 
REMARK    3  A    between atoms: O5_5  and  C15_20 
REMARK    4  A    between atoms: C1_6  and  C3_8 
ROOT
ATOM      1  O1  UNK     1      46.195   1.894   9.718  1.00  0.00    -0.340 OA
ATOM      2  O2  UNK     1      43.955   0.944   6.415  1.00  0.00    -0.292 OA
ATOM      3  C1  UNK     1      46.828   1.545   8.477  1.00  0.00     0.169 C 
ATOM      4  C2  UNK     1      45.956   1.939   7.287  1.00  0.00     0.121 C 
ATOM      5  C4  UNK     1      44.143   0.980   8.768  1.00  0.00     0.076 A 
ATOM      6  C5  UNK     1      44.628   1.236   7.395  1.00  0.00     0.167 C 
ATOM      7  C6  UNK     1      44.946   1.345   9.852  1.00  0.00     0.089 A 
ATOM      8  C7  UNK     1      42.881   0.420   8.981  1.00  0.00     0.085 A 
ATOM      9  C8  UNK     1      44.471   1.180  11.154  1.00  0.00     0.074 A 
ATOM     10  C11 UNK     1      42.419   0.238  10.285  1.00  0.00     0.074 A 
ATOM     11  C12 UNK     1      43.209   0.623  11.369  1.00  0.00     0.071 A 
ENDROOT
BRANCH   3  12
ATOM     12  C3  UNK     1      48.176   2.234   8.417  1.00  0.00    -0.028 A 
ATOM     13  C9  UNK     1      49.099   2.047   9.446  1.00  0.00     0.012 A 
ATOM     14  C13 UNK     1      50.341   2.680   9.391  1.00  0.00     0.037 A 
ATOM     15  C15 UNK     1      50.659   3.500   8.309  1.00  0.00     0.065 A 
ATOM     16  C14 UNK     1      49.734   3.686   7.280  1.00  0.00     0.037 A 
ATOM     17  C10 UNK     1      48.493   3.052   7.335  1.00  0.00     0.012 A 
BRANCH  15  18
ATOM     18  O5  UNK     1      51.870   4.118   8.255  1.00  0.00    -0.361 OA
ATOM     19  H12 UNK     1      52.569   3.443   8.260  1.00  0.00     0.217 HD
ENDBRANCH  15  18
ENDBRANCH   3  12
BRANCH   8  20
ATOM     20  O3  UNK     1      42.061   0.043   7.961  1.00  0.00    -0.360 OA
ATOM     21  H10 UNK     1      41.137   0.218   8.204  1.00  0.00     0.217 HD
ENDBRANCH   8  20
BRANCH  11  22
ATOM     22  O4  UNK     1      42.750   0.451  12.640  1.00  0.00    -0.361 OA
ATOM     23  H11 UNK     1      42.796   1.302  13.109  1.00  0.00     0.217 HD
ENDBRANCH  11  22
TORSDOF 4
ENDMDL
MODEL 9
REMARK VINA RESULT:      -5.7      1.794      1.836
REMARK  4 active torsions:
REMARK  status: ('A' for Active; 'I' for Inactive)
REMARK    1  A    between atoms: O3_3  and  C7_12 
REMARK    2  A    between atoms: O4_4  and  C12_17 
REMARK    3  A    between atoms: O5_5  and  C15_20 
REMARK    4  A    between atoms: C1_6  and  C3_8 
ROOT
ATOM      1  O1  UNK     1      43.689   2.022   7.419  1.00  0.00    -0.340 OA
ATOM      2  O2  UNK     1      44.273   4.702  10.469  1.00  0.00    -0.292 OA
ATOM      3  C1  UNK     1      42.851   2.000   8.585  1.00  0.00     0.169 C 
ATOM      4  C2  UNK     1      42.719   3.395   9.191  1.00  0.00     0.121 C 
ATOM      5  C4  UNK     1      45.200   3.443   8.700  1.00  0.00     0.076 A 
ATOM      6  C5  UNK     1      44.089   3.905   9.557  1.00  0.00     0.167 C 
ATOM      7  C6  UNK     1      44.932   2.543   7.664  1.00  0.00     0.089 A 
ATOM      8  C7  UNK     1      46.495   3.930   8.894  1.00  0.00     0.085 A 
ATOM      9  C8  UNK     1      45.956   2.157   6.799  1.00  0.00     0.074 A 
ATOM     10  C11 UNK     1      47.519   3.524   8.038  1.00  0.00     0.074 A 
ATOM     11  C12 UNK     1      47.250   2.643   6.989  1.00  0.00     0.071 A 
ENDROOT
BRANCH   3  12
ATOM     12  C3  UNK     1      41.498   1.444   8.192  1.00  0.00    -0.028 A 
ATOM     13  C9  UNK     1      41.183   0.115   8.474  1.00  0.00     0.012 A 
ATOM     14  C13 UNK     1      39.936  -0.396   8.113  1.00  0.00     0.037 A 
ATOM     15  C15 UNK     1      39.006   0.421   7.471  1.00  0.00     0.065 A 
ATOM     16  C14 UNK     1      39.322   1.751   7.190  1.00  0.00     0.037 A 
ATOM     17  C10 UNK     1      40.568   2.262   7.552  1.00  0.00     0.012 A 
BRANCH  15  18
ATOM     18  O5  UNK     1      37.790  -0.078   7.118  1.00  0.00    -0.361 OA
ATOM     19  H12 UNK     1      37.418   0.471   6.407  1.00  0.00     0.217 HD
ENDBRANCH  15  18
ENDBRANCH   3  12
BRANCH   8  20
ATOM     20  O3  UNK     1      46.811   4.804   9.890  1.00  0.00    -0.360 OA
ATOM     21  H10 UNK     1      46.038   4.936  10.465  1.00  0.00     0.217 HD
ENDBRANCH   8  20
BRANCH  11  22
ATOM     22  O4  UNK     1      48.252   2.257   6.153  1.00  0.00    -0.361 OA
ATOM     23  H11 UNK     1      48.639   3.047   5.737  1.00  0.00     0.217 HD
ENDBRANCH  11  22
TORSDOF 4
ENDMDL
MODEL 10
REMARK VINA RESULT:      -5.7      5.360      8.065
REMARK  4 active torsions:
REMARK  status: ('A' for Active; 'I' for Inactive)
REMARK    1  A    between atoms: O3_3  and  C7_12 
REMARK    2  A    between atoms: O4_4  and  C12_17 
REMARK    3  A    between atoms: O5_5  and  C15_20 
REMARK    4  A    between atoms: C1_6  and  C3_8 
ROOT
ATOM      1  O1  UNK     1      38.984  -1.126   8.074  1.00  0.00    -0.340 OA
ATOM      2  O2  UNK     1      37.567  -3.419  11.166  1.00  0.00    -0.292 OA
ATOM      3  C1  UNK     1      38.359  -0.516   9.214  1.00  0.00     0.169 C 
ATOM      4  C2  UNK     1      38.573  -1.355  10.471  1.00  0.00     0.121 C 
ATOM      5  C4  UNK     1      38.045  -3.234   8.862  1.00  0.00     0.076 A 
ATOM      6  C5  UNK     1      37.996  -2.730  10.250  1.00  0.00     0.167 C 
ATOM      7  C6  UNK     1      38.557  -2.410   7.855  1.00  0.00     0.089 A 
ATOM      8  C7  UNK     1      37.623  -4.532   8.564  1.00  0.00     0.085 A 
ATOM      9  C8  UNK     1      38.681  -2.899   6.554  1.00  0.00     0.074 A 
ATOM     10  C11 UNK     1      37.730  -5.009   7.257  1.00  0.00     0.074 A 
ATOM     11  C12 UNK     1      38.262  -4.197   6.255  1.00  0.00     0.071 A 
ENDROOT
BRANCH   3  12
ATOM     12  C3  UNK     1      38.930   0.877   9.384  1.00  0.00    -0.028 A 
ATOM     13  C9  UNK     1      38.635   1.615  10.530  1.00  0.00     0.012 A 
ATOM     14  C13 UNK     1      39.161   2.898  10.687  1.00  0.00     0.037 A 
ATOM     15  C15 UNK     1      39.980   3.442   9.698  1.00  0.00     0.065 A 
ATOM     16  C14 UNK     1      40.274   2.703   8.551  1.00  0.00     0.037 A 
ATOM     17  C10 UNK     1      39.749   1.420   8.395  1.00  0.00     0.012 A 
BRANCH  15  18
ATOM     18  O5  UNK     1      40.492   4.693   9.851  1.00  0.00    -0.361 OA
ATOM     19  H12 UNK     1      40.510   4.913  10.798  1.00  0.00     0.217 HD
ENDBRANCH  15  18
ENDBRANCH   3  12
BRANCH   8  20
ATOM     20  O3  UNK     1      37.112  -5.374   9.505  1.00  0.00    -0.360 OA
ATOM     21  H10 UNK     1      36.325  -5.819   9.151  1.00  0.00     0.217 HD
ENDBRANCH   8  20
BRANCH  11  22
ATOM     22  O4  UNK     1      38.371  -4.669   4.983  1.00  0.00    -0.361 OA
ATOM     23  H11 UNK     1      39.254  -4.448   4.639  1.00  0.00     0.217 HD
ENDBRANCH  11  22
TORSDOF 4
ENDMDL
MODEL 11
REMARK VINA RESULT:      -5.7      7.321     10.473
REMARK  4 active torsions:
REMARK  status: ('A' for Active; 'I' for Inactive)
REMARK    1  A    between atoms: O3_3  and  C7_12 
REMARK    2  A    between atoms: O4_4  and  C12_17 
REMARK    3  A    between atoms: O5_5  and  C15_20 
REMARK    4  A    between atoms: C1_6  and  C3_8 
ROOT
ATOM      1  O1  UNK     1      37.715  -5.078   5.576  1.00  0.00    -0.340 OA
ATOM      2  O2  UNK     1      37.332  -6.370   9.450  1.00  0.00    -0.292 OA
ATOM      3  C1  UNK     1      37.988  -6.444   5.924  1.00  0.00     0.169 C 
ATOM      4  C2  UNK     1      37.140  -6.886   7.115  1.00  0.00     0.121 C 
ATOM      5  C4  UNK     1      37.802  -4.597   7.965  1.00  0.00     0.076 A 
ATOM      6  C5  UNK     1      37.439  -5.991   8.291  1.00  0.00     0.167 C 
ATOM      7  C6  UNK     1      37.898  -4.213   6.624  1.00  0.00     0.089 A 
ATOM      8  C7  UNK     1      38.006  -3.661   8.983  1.00  0.00     0.085 A 
ATOM      9  C8  UNK     1      38.164  -2.882   6.300  1.00  0.00     0.074 A 
ATOM     10  C11 UNK     1      38.292  -2.336   8.653  1.00  0.00     0.074 A 
ATOM     11  C12 UNK     1      38.366  -1.946   7.315  1.00  0.00     0.071 A 
ENDROOT
BRANCH   3  12
ATOM     12  C3  UNK     1      37.718  -7.310   4.711  1.00  0.00    -0.028 A 
ATOM     13  C9  UNK     1      38.594  -8.345   4.386  1.00  0.00     0.012 A 
ATOM     14  C13 UNK     1      38.345  -9.143   3.269  1.00  0.00     0.037 A 
ATOM     15  C15 UNK     1      37.222  -8.906   2.478  1.00  0.00     0.065 A 
ATOM     16  C14 UNK     1      36.346  -7.869   2.804  1.00  0.00     0.037 A 
ATOM     17  C10 UNK     1      36.594  -7.073   3.922  1.00  0.00     0.012 A 
BRANCH  15  18
ATOM     18  O5  UNK     1      36.979  -9.684   1.388  1.00  0.00    -0.361 OA
ATOM     19  H12 UNK     1      37.693 -10.339   1.304  1.00  0.00     0.217 HD
ENDBRANCH  15  18
ENDBRANCH   3  12
BRANCH   8  20
ATOM     20  O3  UNK     1      37.929  -3.983  10.304  1.00  0.00    -0.360 OA
ATOM     21  H10 UNK     1      37.003  -3.944  10.595  1.00  0.00     0.217 HD
ENDBRANCH   8  20
BRANCH  11  22
ATOM     22  O4  UNK     1      38.638  -0.650   6.999  1.00  0.00    -0.361 OA
ATOM     23  H11 UNK     1      39.169  -0.256   7.713  1.00  0.00     0.217 HD
ENDBRANCH  11  22
TORSDOF 4
ENDMDL
MODEL 12
REMARK VINA RESULT:      -5.6      5.980      9.591
REMARK  4 active torsions:
REMARK  status: ('A' for Active; 'I' for Inactive)
REMARK    1  A    between atoms: O3_3  and  C7_12 
REMARK    2  A    between atoms: O4_4  and  C12_17 
REMARK    3  A    between atoms: O5_5  and  C15_20 
REMARK    4  A    between atoms: C1_6  and  C3_8 
ROOT
ATOM      1  O1  UNK     1      38.614  -4.177   6.057  1.00  0.00    -0.340 OA
ATOM      2  O2  UNK     1      35.132  -2.312   7.162  1.00  0.00    -0.292 OA
ATOM      3  C1  UNK     1      37.399  -4.925   6.214  1.00  0.00     0.169 C 
ATOM      4  C2  UNK     1      36.179  -4.063   5.900  1.00  0.00     0.121 C 
ATOM      5  C4  UNK     1      37.491  -2.367   7.243  1.00  0.00     0.076 A 
ATOM      6  C5  UNK     1      36.167  -2.872   6.823  1.00  0.00     0.167 C 
ATOM      7  C6  UNK     1      38.641  -3.037   6.817  1.00  0.00     0.089 A 
ATOM      8  C7  UNK     1      37.594  -1.212   8.021  1.00  0.00     0.085 A 
ATOM      9  C8  UNK     1      39.900  -2.529   7.141  1.00  0.00     0.074 A 
ATOM     10  C11 UNK     1      38.855  -0.720   8.360  1.00  0.00     0.074 A 
ATOM     11  C12 UNK     1      40.006  -1.373   7.917  1.00  0.00     0.071 A 
ENDROOT
BRANCH   3  12
ATOM     12  C3  UNK     1      37.461  -6.136   5.305  1.00  0.00    -0.028 A 
ATOM     13  C9  UNK     1      38.175  -7.267   5.700  1.00  0.00     0.012 A 
ATOM     14  C13 UNK     1      38.232  -8.381   4.863  1.00  0.00     0.037 A 
ATOM     15  C15 UNK     1      37.575  -8.365   3.633  1.00  0.00     0.065 A 
ATOM     16  C14 UNK     1      36.860  -7.232   3.239  1.00  0.00     0.037 A 
ATOM     17  C10 UNK     1      36.803  -6.118   4.077  1.00  0.00     0.012 A 
BRANCH  15  18
ATOM     18  O5  UNK     1      37.630  -9.452   2.816  1.00  0.00    -0.361 OA
ATOM     19  H12 UNK     1      36.929  -9.379   2.147  1.00  0.00     0.217 HD
ENDBRANCH  15  18
ENDBRANCH   3  12
BRANCH   8  20
ATOM     20  O3  UNK     1      36.506  -0.524   8.467  1.00  0.00    -0.360 OA
ATOM     21  H10 UNK     1      36.063  -1.034   9.165  1.00  0.00     0.217 HD
ENDBRANCH   8  20
BRANCH  11  22
ATOM     22  O4  UNK     1      41.234  -0.885   8.244  1.00  0.00    -0.361 OA
ATOM     23  H11 UNK     1      41.126  -0.167   8.892  1.00  0.00     0.217 HD
ENDBRANCH  11  22
TORSDOF 4
ENDMDL
MODEL 13
REMARK VINA RESULT:      -5.6      3.294      6.548
REMARK  4 active torsions:
REMARK  status: ('A' for Active; 'I' for Inactive)
REMARK    1  A    between atoms: O3_3  and  C7_12 
REMARK    2  A    between atoms: O4_4  and  C12_17 
REMARK    3  A    between atoms: O5_5  and  C15_20 
REMARK    4  A    between atoms: C1_6  and  C3_8 
ROOT
ATOM      1  O1  UNK     1      41.360   2.944   8.487  1.00  0.00    -0.340 OA
ATOM      2  O2  UNK     1      43.476  -0.470   9.320  1.00  0.00    -0.292 OA
ATOM      3  C1  UNK     1      42.399   2.948   9.478  1.00  0.00     0.169 C 
ATOM      4  C2  UNK     1      43.480   1.922   9.143  1.00  0.00     0.121 C 
ATOM      5  C4  UNK     1      41.452   0.510   8.601  1.00  0.00     0.076 A 
ATOM      6  C5  UNK     1      42.853   0.553   9.069  1.00  0.00     0.167 C 
ATOM      7  C6  UNK     1      40.791   1.708   8.316  1.00  0.00     0.089 A 
ATOM      8  C7  UNK     1      40.808  -0.715   8.406  1.00  0.00     0.085 A 
ATOM      9  C8  UNK     1      39.495   1.680   7.801  1.00  0.00     0.074 A 
ATOM     10  C11 UNK     1      39.504  -0.736   7.911  1.00  0.00     0.074 A 
ATOM     11  C12 UNK     1      38.850   0.458   7.603  1.00  0.00     0.071 A 
ENDROOT
BRANCH   3  12
ATOM     12  C3  UNK     1      42.979   4.345   9.557  1.00  0.00    -0.028 A 
ATOM     13  C9  UNK     1      44.289   4.580   9.137  1.00  0.00     0.012 A 
ATOM     14  C13 UNK     1      44.822   5.867   9.210  1.00  0.00     0.037 A 
ATOM     15  C15 UNK     1      44.048   6.917   9.701  1.00  0.00     0.065 A 
ATOM     16  C14 UNK     1      42.738   6.681  10.121  1.00  0.00     0.037 A 
ATOM     17  C10 UNK     1      42.204   5.394  10.048  1.00  0.00     0.012 A 
BRANCH  15  18
ATOM     18  O5  UNK     1      44.569   8.172   9.773  1.00  0.00    -0.361 OA
ATOM     19  H12 UNK     1      45.527   8.125   9.616  1.00  0.00     0.217 HD
ENDBRANCH  15  18
ENDBRANCH   3  12
BRANCH   8  20
ATOM     20  O3  UNK     1      41.403  -1.910   8.673  1.00  0.00    -0.360 OA
ATOM     21  H10 UNK     1      41.934  -1.836   9.484  1.00  0.00     0.217 HD
ENDBRANCH   8  20
BRANCH  11  22
ATOM     22  O4  UNK     1      37.581   0.431   7.112  1.00  0.00    -0.361 OA
ATOM     23  H11 UNK     1      37.045  -0.172   7.656  1.00  0.00     0.217 HD
ENDBRANCH  11  22
TORSDOF 4
ENDMDL
MODEL 14
REMARK VINA RESULT:      -5.6      3.758      8.165
REMARK  4 active torsions:
REMARK  status: ('A' for Active; 'I' for Inactive)
REMARK    1  A    between atoms: O3_3  and  C7_12 
REMARK    2  A    between atoms: O4_4  and  C12_17 
REMARK    3  A    between atoms: O5_5  and  C15_20 
REMARK    4  A    between atoms: C1_6  and  C3_8 
ROOT
ATOM      1  O1  UNK     1      39.539  -0.390   7.815  1.00  0.00    -0.340 OA
ATOM      2  O2  UNK     1      35.626  -0.037   8.997  1.00  0.00    -0.292 OA
ATOM      3  C1  UNK     1      38.961   0.900   8.065  1.00  0.00     0.169 C 
ATOM      4  C2  UNK     1      37.865   0.815   9.125  1.00  0.00     0.121 C 
ATOM      5  C4  UNK     1      37.259  -1.254   7.802  1.00  0.00     0.076 A 
ATOM      6  C5  UNK     1      36.797  -0.138   8.653  1.00  0.00     0.167 C 
ATOM      7  C6  UNK     1      38.609  -1.329   7.450  1.00  0.00     0.089 A 
ATOM      8  C7  UNK     1      36.366  -2.247   7.390  1.00  0.00     0.085 A 
ATOM      9  C8  UNK     1      39.074  -2.418   6.712  1.00  0.00     0.074 A 
ATOM     10  C11 UNK     1      36.832  -3.323   6.634  1.00  0.00     0.074 A 
ATOM     11  C12 UNK     1      38.185  -3.412   6.300  1.00  0.00     0.071 A 
ENDROOT
BRANCH   3  12
ATOM     12  C3  UNK     1      40.065   1.844   8.496  1.00  0.00    -0.028 A 
ATOM     13  C9  UNK     1      39.778   2.906   9.352  1.00  0.00     0.012 A 
ATOM     14  C13 UNK     1      40.795   3.775   9.750  1.00  0.00     0.037 A 
ATOM     15  C15 UNK     1      42.098   3.581   9.291  1.00  0.00     0.065 A 
ATOM     16  C14 UNK     1      42.384   2.517   8.433  1.00  0.00     0.037 A 
ATOM     17  C10 UNK     1      41.367   1.648   8.037  1.00  0.00     0.012 A 
BRANCH  15  18
ATOM     18  O5  UNK     1      43.089   4.428   9.678  1.00  0.00    -0.361 OA
ATOM     19  H12 UNK     1      43.755   3.927  10.179  1.00  0.00     0.217 HD
ENDBRANCH  15  18
ENDBRANCH   3  12
BRANCH   8  20
ATOM     20  O3  UNK     1      35.040  -2.220   7.702  1.00  0.00    -0.360 OA
ATOM     21  H10 UNK     1      34.886  -2.731   8.513  1.00  0.00     0.217 HD
ENDBRANCH   8  20
BRANCH  11  22
ATOM     22  O4  UNK     1      38.636  -4.468   5.569  1.00  0.00    -0.361 OA
ATOM     23  H11 UNK     1      38.207  -5.280   5.891  1.00  0.00     0.217 HD
ENDBRANCH  11  22
TORSDOF 4
ENDMDL
MODEL 15
REMARK VINA RESULT:      -5.6      3.725      8.120
REMARK  4 active torsions:
REMARK  status: ('A' for Active; 'I' for Inactive)
REMARK    1  A    between atoms: O3_3  and  C7_12 
REMARK    2  A    between atoms: O4_4  and  C12_17 
REMARK    3  A    between atoms: O5_5  and  C15_20 
REMARK    4  A    between atoms: C1_6  and  C3_8 
ROOT
ATOM      1  O1  UNK     1      39.580  -0.373   7.808  1.00  0.00    -0.340 OA
ATOM      2  O2  UNK     1      35.667   0.008   8.982  1.00  0.00    -0.292 OA
ATOM      3  C1  UNK     1      39.009   0.922   8.050  1.00  0.00     0.169 C 
ATOM      4  C2  UNK     1      37.911   0.849   9.109  1.00  0.00     0.121 C 
ATOM      5  C4  UNK     1      37.295  -1.224   7.796  1.00  0.00     0.076 A 
ATOM      6  C5  UNK     1      36.838  -0.101   8.640  1.00  0.00     0.167 C 
ATOM      7  C6  UNK     1      38.645  -1.308   7.446  1.00  0.00     0.089 A 
ATOM      8  C7  UNK     1      36.397  -2.214   7.388  1.00  0.00     0.085 A 
ATOM      9  C8  UNK     1      39.106  -2.403   6.715  1.00  0.00     0.074 A 
ATOM     10  C11 UNK     1      36.859  -3.296   6.638  1.00  0.00     0.074 A 
ATOM     11  C12 UNK     1      38.211  -3.394   6.307  1.00  0.00     0.071 A 
ENDROOT
BRANCH   3  12
ATOM     12  C3  UNK     1      40.118   1.862   8.478  1.00  0.00    -0.028 A 
ATOM     13  C9  UNK     1      41.418   1.660   8.016  1.00  0.00     0.012 A 
ATOM     14  C13 UNK     1      42.439   2.526   8.410  1.00  0.00     0.037 A 
ATOM     15  C15 UNK     1      42.159   3.591   9.265  1.00  0.00     0.065 A 
ATOM     16  C14 UNK     1      40.858   3.791   9.728  1.00  0.00     0.037 A 
ATOM     17  C10 UNK     1      39.837   2.927   9.333  1.00  0.00     0.012 A 
BRANCH  15  18
ATOM     18  O5  UNK     1      43.155   4.435   9.650  1.00  0.00    -0.361 OA
ATOM     19  H12 UNK     1      42.989   5.313   9.268  1.00  0.00     0.217 HD
ENDBRANCH  15  18
ENDBRANCH   3  12
BRANCH   8  20
ATOM     20  O3  UNK     1      35.071  -2.178   7.697  1.00  0.00    -0.360 OA
ATOM     21  H10 UNK     1      34.937  -1.641   8.495  1.00  0.00     0.217 HD
ENDBRANCH   8  20
BRANCH  11  22
ATOM     22  O4  UNK     1      38.658  -4.457   5.582  1.00  0.00    -0.361 OA
ATOM     23  H11 UNK     1      38.396  -4.337   4.653  1.00  0.00     0.217 HD
ENDBRANCH  11  22
TORSDOF 4
ENDMDL
MODEL 16
REMARK VINA RESULT:      -5.6      2.500      6.579
REMARK  4 active torsions:
REMARK  status: ('A' for Active; 'I' for Inactive)
REMARK    1  A    between atoms: O3_3  and  C7_12 
REMARK    2  A    between atoms: O4_4  and  C12_17 
REMARK    3  A    between atoms: O5_5  and  C15_20 
REMARK    4  A    between atoms: C1_6  and  C3_8 
ROOT
ATOM      1  O1  UNK     1      42.403   2.591   8.036  1.00  0.00    -0.340 OA
ATOM      2  O2  UNK     1      42.700  -1.189   9.600  1.00  0.00    -0.292 OA
ATOM      3  C1  UNK     1      43.207   2.339   9.199  1.00  0.00     0.169 C 
ATOM      4  C2  UNK     1      43.766   0.918   9.181  1.00  0.00     0.121 C 
ATOM      5  C4  UNK     1      41.412   0.395   8.416  1.00  0.00     0.076 A 
ATOM      6  C5  UNK     1      42.622  -0.061   9.132  1.00  0.00     0.167 C 
ATOM      7  C6  UNK     1      41.380   1.690   7.889  1.00  0.00     0.089 A 
ATOM      8  C7  UNK     1      40.331  -0.469   8.230  1.00  0.00     0.085 A 
ATOM      9  C8  UNK     1      40.277   2.109   7.144  1.00  0.00     0.074 A 
ATOM     10  C11 UNK     1      39.221  -0.037   7.503  1.00  0.00     0.074 A 
ATOM     11  C12 UNK     1      39.196   1.246   6.956  1.00  0.00     0.071 A 
ENDROOT
BRANCH   3  12
ATOM     12  C3  UNK     1      44.321   3.364   9.241  1.00  0.00    -0.028 A 
ATOM     13  C9  UNK     1      45.649   2.945   9.321  1.00  0.00     0.012 A 
ATOM     14  C13 UNK     1      46.676   3.890   9.360  1.00  0.00     0.037 A 
ATOM     15  C15 UNK     1      46.374   5.250   9.319  1.00  0.00     0.065 A 
ATOM     16  C14 UNK     1      45.045   5.668   9.239  1.00  0.00     0.037 A 
ATOM     17  C10 UNK     1      44.019   4.724   9.200  1.00  0.00     0.012 A 
BRANCH  15  18
ATOM     18  O5  UNK     1      47.376   6.171   9.357  1.00  0.00    -0.361 OA
ATOM     19  H12 UNK     1      48.189   5.740   9.669  1.00  0.00     0.217 HD
ENDBRANCH  15  18
ENDBRANCH   3  12
BRANCH   8  20
ATOM     20  O3  UNK     1      40.308  -1.737   8.726  1.00  0.00    -0.360 OA
ATOM     21  H10 UNK     1      39.395  -1.985   8.945  1.00  0.00     0.217 HD
ENDBRANCH   8  20
BRANCH  11  22
ATOM     22  O4  UNK     1      38.114   1.660   6.240  1.00  0.00    -0.361 OA
ATOM     23  H11 UNK     1      37.341   1.698   6.830  1.00  0.00     0.217 HD
ENDBRANCH  11  22
TORSDOF 4
ENDMDL
MODEL 17
REMARK VINA RESULT:      -5.6      2.467      3.198
REMARK  4 active torsions:
REMARK  status: ('A' for Active; 'I' for Inactive)
REMARK    1  A    between atoms: O3_3  and  C7_12 
REMARK    2  A    between atoms: O4_4  and  C12_17 
REMARK    3  A    between atoms: O5_5  and  C15_20 
REMARK    4  A    between atoms: C1_6  and  C3_8 
ROOT
ATOM      1  O1  UNK     1      42.513   3.074   8.915  1.00  0.00    -0.340 OA
ATOM      2  O2  UNK     1      45.937   1.646   7.165  1.00  0.00    -0.292 OA
ATOM      3  C1  UNK     1      42.452   2.302   7.705  1.00  0.00     0.169 C 
ATOM      4  C2  UNK     1      43.608   1.307   7.631  1.00  0.00     0.121 C 
ATOM      5  C4  UNK     1      44.900   3.310   8.480  1.00  0.00     0.076 A 
ATOM      6  C5  UNK     1      44.911   2.062   7.688  1.00  0.00     0.167 C 
ATOM      7  C6  UNK     1      43.705   3.733   9.068  1.00  0.00     0.089 A 
ATOM      8  C7  UNK     1      46.078   4.035   8.676  1.00  0.00     0.085 A 
ATOM      9  C8  UNK     1      43.695   4.866   9.882  1.00  0.00     0.074 A 
ATOM     10  C11 UNK     1      46.058   5.179   9.474  1.00  0.00     0.074 A 
ATOM     11  C12 UNK     1      44.870   5.591  10.081  1.00  0.00     0.071 A 
ENDROOT
BRANCH   3  12
ATOM     12  C3  UNK     1      41.116   1.590   7.658  1.00  0.00    -0.028 A 
ATOM     13  C9  UNK     1      40.990   0.309   8.195  1.00  0.00     0.012 A 
ATOM     14  C13 UNK     1      39.759  -0.346   8.152  1.00  0.00     0.037 A 
ATOM     15  C15 UNK     1      38.656   0.279   7.572  1.00  0.00     0.065 A 
ATOM     16  C14 UNK     1      38.783   1.560   7.035  1.00  0.00     0.037 A 
ATOM     17  C10 UNK     1      40.013   2.216   7.079  1.00  0.00     0.012 A 
BRANCH  15  18
ATOM     18  O5  UNK     1      37.455  -0.361   7.530  1.00  0.00    -0.361 OA
ATOM     19  H12 UNK     1      37.497  -1.064   6.860  1.00  0.00     0.217 HD
ENDBRANCH  15  18
ENDBRANCH   3  12
BRANCH   8  20
ATOM     20  O3  UNK     1      47.268   3.669   8.124  1.00  0.00    -0.360 OA
ATOM     21  H10 UNK     1      47.983   4.206   8.505  1.00  0.00     0.217 HD
ENDBRANCH   8  20
BRANCH  11  22
ATOM     22  O4  UNK     1      44.858   6.704  10.865  1.00  0.00    -0.361 OA
ATOM     23  H11 UNK     1      45.509   6.594  11.580  1.00  0.00     0.217 HD
ENDBRANCH  11  22
TORSDOF 4
ENDMDL
MODEL 18
REMARK VINA RESULT:      -5.5      2.480      4.891
REMARK  4 active torsions:
REMARK  status: ('A' for Active; 'I' for Inactive)
REMARK    1  A    between atoms: O3_3  and  C7_12 
REMARK    2  A    between atoms: O4_4  and  C12_17 
REMARK    3  A    between atoms: O5_5  and  C15_20 
REMARK    4  A    between atoms: C1_6  and  C3_8 
ROOT
ATOM      1  O1  UNK     1      47.996   1.581   9.456  1.00  0.00    -0.340 OA
ATOM      2  O2  UNK     1      49.751   3.982   6.631  1.00  0.00    -0.292 OA
ATOM      3  C1  UNK     1      47.197   2.413   8.601  1.00  0.00     0.169 C 
ATOM      4  C2  UNK     1      47.875   2.621   7.249  1.00  0.00     0.121 C 
ATOM      5  C4  UNK     1      49.908   2.906   8.726  1.00  0.00     0.076 A 
ATOM      6  C5  UNK     1      49.222   3.260   7.466  1.00  0.00     0.167 C 
ATOM      7  C6  UNK     1      49.264   2.068   9.640  1.00  0.00     0.089 A 
ATOM      8  C7  UNK     1      51.202   3.368   8.982  1.00  0.00     0.085 A 
ATOM      9  C8  UNK     1      49.929   1.662  10.798  1.00  0.00     0.074 A 
ATOM     10  C11 UNK     1      51.854   2.976  10.151  1.00  0.00     0.074 A 
ATOM     11  C12 UNK     1      51.222   2.121  11.055  1.00  0.00     0.071 A 
ENDROOT
BRANCH   3  12
ATOM     12  C3  UNK     1      45.838   1.765   8.437  1.00  0.00    -0.028 A 
ATOM     13  C9  UNK     1      45.330   0.947   9.446  1.00  0.00     0.012 A 
ATOM     14  C13 UNK     1      44.078   0.350   9.294  1.00  0.00     0.037 A 
ATOM     15  C15 UNK     1      43.335   0.572   8.135  1.00  0.00     0.065 A 
ATOM     16  C14 UNK     1      43.844   1.391   7.126  1.00  0.00     0.037 A 
ATOM     17  C10 UNK     1      45.095   1.988   7.278  1.00  0.00     0.012 A 
BRANCH  15  18
ATOM     18  O5  UNK     1      42.114  -0.010   7.987  1.00  0.00    -0.361 OA
ATOM     19  H12 UNK     1      41.524   0.312   8.690  1.00  0.00     0.217 HD
ENDBRANCH  15  18
ENDBRANCH   3  12
BRANCH   8  20
ATOM     20  O3  UNK     1      51.873   4.190   8.128  1.00  0.00    -0.360 OA
ATOM     21  H10 UNK     1      51.793   5.110   8.431  1.00  0.00     0.217 HD
ENDBRANCH   8  20
BRANCH  11  22
ATOM     22  O4  UNK     1      51.867   1.735  12.191  1.00  0.00    -0.361 OA
ATOM     23  H11 UNK     1      52.491   2.434  12.452  1.00  0.00     0.217 HD
ENDBRANCH  11  22
TORSDOF 4
ENDMDL
MODEL 19
REMARK VINA RESULT:      -5.4      3.511      5.317
REMARK  4 active torsions:
REMARK  status: ('A' for Active; 'I' for Inactive)
REMARK    1  A    between atoms: O3_3  and  C7_12 
REMARK    2  A    between atoms: O4_4  and  C12_17 
REMARK    3  A    between atoms: O5_5  and  C15_20 
REMARK    4  A    between atoms: C1_6  and  C3_8 
ROOT
ATOM      1  O1  UNK     1      39.392   0.295   8.545  1.00  0.00    -0.340 OA
ATOM      2  O2  UNK     1      43.106  -1.017   9.690  1.00  0.00    -0.292 OA
ATOM      3  C1  UNK     1      39.985  -0.859   7.930  1.00  0.00     0.169 C 
ATOM      4  C2  UNK     1      40.912  -1.584   8.902  1.00  0.00     0.121 C 
ATOM      5  C4  UNK     1      41.610   0.790   9.429  1.00  0.00     0.076 A 
ATOM      6  C5  UNK     1      41.993  -0.635   9.351  1.00  0.00     0.167 C 
ATOM      7  C6  UNK     1      40.322   1.171   9.042  1.00  0.00     0.089 A 
ATOM      8  C7  UNK     1      42.508   1.739   9.924  1.00  0.00     0.085 A 
ATOM      9  C8  UNK     1      39.920   2.500   9.183  1.00  0.00     0.074 A 
ATOM     10  C11 UNK     1      42.108   3.070  10.043  1.00  0.00     0.074 A 
ATOM     11  C12 UNK     1      40.815   3.450   9.678  1.00  0.00     0.071 A 
ENDROOT
BRANCH   3  12
ATOM     12  C3  UNK     1      38.873  -1.771   7.453  1.00  0.00    -0.028 A 
ATOM     13  C9  UNK     1      37.548  -1.483   7.781  1.00  0.00     0.012 A 
ATOM     14  C13 UNK     1      36.524  -2.324   7.342  1.00  0.00     0.037 A 
ATOM     15  C15 UNK     1      36.826  -3.449   6.576  1.00  0.00     0.065 A 
ATOM     16  C14 UNK     1      38.152  -3.736   6.249  1.00  0.00     0.037 A 
ATOM     17  C10 UNK     1      39.175  -2.896   6.687  1.00  0.00     0.012 A 
BRANCH  15  18
ATOM     18  O5  UNK     1      35.827  -4.269   6.148  1.00  0.00    -0.361 OA
ATOM     19  H12 UNK     1      35.627  -4.063   5.219  1.00  0.00     0.217 HD
ENDBRANCH  15  18
ENDBRANCH   3  12
BRANCH   8  20
ATOM     20  O3  UNK     1      43.775   1.423  10.311  1.00  0.00    -0.360 OA
ATOM     21  H10 UNK     1      44.138   2.140  10.856  1.00  0.00     0.217 HD
ENDBRANCH   8  20
BRANCH  11  22
ATOM     22  O4  UNK     1      40.426   4.749   9.804  1.00  0.00    -0.361 OA
ATOM     23  H11 UNK     1      40.047   5.048   8.959  1.00  0.00     0.217 HD
ENDBRANCH  11  22
TORSDOF 4
ENDMDL
