MODEL 1
REMARK VINA RESULT:      -7.4      0.000      0.000
REMARK  4 active torsions:
REMARK  status: ('A' for Active; 'I' for Inactive)
REMARK    1  A    between atoms: O3_3  and  C7_12 
REMARK    2  A    between atoms: O4_4  and  C12_17 
REMARK    3  A    between atoms: O5_5  and  C15_20 
REMARK    4  A    between atoms: C1_6  and  C3_8 
ROOT
ATOM      1  O1  UNK     1      39.871  15.501   0.007  1.00  0.00    -0.340 OA
ATOM      2  O2  UNK     1      41.272  16.439  -3.732  1.00  0.00    -0.292 OA
ATOM      3  C1  UNK     1      40.061  14.479  -0.983  1.00  0.00     0.169 C 
ATOM      4  C2  UNK     1      41.193  14.846  -1.940  1.00  0.00     0.121 C 
ATOM      5  C4  UNK     1      40.069  17.109  -1.816  1.00  0.00     0.076 A 
ATOM      6  C5  UNK     1      40.863  16.152  -2.615  1.00  0.00     0.167 C 
ATOM      7  C6  UNK     1      39.637  16.736  -0.540  1.00  0.00     0.089 A 
ATOM      8  C7  UNK     1      39.789  18.385  -2.311  1.00  0.00     0.085 A 
ATOM      9  C8  UNK     1      38.953  17.655   0.257  1.00  0.00     0.074 A 
ATOM     10  C11 UNK     1      39.086  19.293  -1.518  1.00  0.00     0.074 A 
ATOM     11  C12 UNK     1      38.674  18.931  -0.234  1.00  0.00     0.071 A 
ENDROOT
BRANCH   3  12
ATOM     12  C3  UNK     1      40.350  13.172  -0.272  1.00  0.00    -0.028 A 
ATOM     13  C9  UNK     1      40.029  13.028   1.077  1.00  0.00     0.012 A 
ATOM     14  C13 UNK     1      40.294  11.825   1.731  1.00  0.00     0.037 A 
ATOM     15  C15 UNK     1      40.880  10.767   1.037  1.00  0.00     0.065 A 
ATOM     16  C14 UNK     1      41.201  10.913  -0.314  1.00  0.00     0.037 A 
ATOM     17  C10 UNK     1      40.935  12.116  -0.968  1.00  0.00     0.012 A 
BRANCH  15  18
ATOM     18  O5  UNK     1      41.139   9.594   1.675  1.00  0.00    -0.361 OA
ATOM     19  H12 UNK     1      41.157   8.876   1.019  1.00  0.00     0.217 HD
ENDBRANCH  15  18
ENDBRANCH   3  12
BRANCH   8  20
ATOM     20  O3  UNK     1      40.182  18.797  -3.548  1.00  0.00    -0.360 OA
ATOM     21  H10 UNK     1      40.973  19.356  -3.469  1.00  0.00     0.217 HD
ENDBRANCH   8  20
BRANCH  11  22
ATOM     22  O4  UNK     1      37.995  19.824   0.538  1.00  0.00    -0.361 OA
ATOM     23  H11 UNK     1      38.350  19.790   1.444  1.00  0.00     0.217 HD
ENDBRANCH  11  22
TORSDOF 4
ENDMDL
MODEL 2
REMARK VINA RESULT:      -7.4      0.024      1.081
REMARK  4 active torsions:
REMARK  status: ('A' for Active; 'I' for Inactive)
REMARK    1  A    between atoms: O3_3  and  C7_12 
REMARK    2  A    between atoms: O4_4  and  C12_17 
REMARK    3  A    between atoms: O5_5  and  C15_20 
REMARK    4  A    between atoms: C1_6  and  C3_8 
ROOT
ATOM      1  O1  UNK     1      39.866  15.505  -0.004  1.00  0.00    -0.340 OA
ATOM      2  O2  UNK     1      41.246  16.448  -3.750  1.00  0.00    -0.292 OA
ATOM      3  C1  UNK     1      40.047  14.485  -0.998  1.00  0.00     0.169 C 
ATOM      4  C2  UNK     1      41.173  14.851  -1.962  1.00  0.00     0.121 C 
ATOM      5  C4  UNK     1      40.056  17.117  -1.824  1.00  0.00     0.076 A 
ATOM      6  C5  UNK     1      40.842  16.161  -2.630  1.00  0.00     0.167 C 
ATOM      7  C6  UNK     1      39.631  16.742  -0.546  1.00  0.00     0.089 A 
ATOM      8  C7  UNK     1      39.777  18.395  -2.314  1.00  0.00     0.085 A 
ATOM      9  C8  UNK     1      38.955  17.661   0.257  1.00  0.00     0.074 A 
ATOM     10  C11 UNK     1      39.082  19.303  -1.514  1.00  0.00     0.074 A 
ATOM     11  C12 UNK     1      38.676  18.939  -0.229  1.00  0.00     0.071 A 
ENDROOT
BRANCH   3  12
ATOM     12  C3  UNK     1      40.336  13.176  -0.293  1.00  0.00    -0.028 A 
ATOM     13  C9  UNK     1      40.922  12.122  -0.994  1.00  0.00     0.012 A 
ATOM     14  C13 UNK     1      41.189  10.916  -0.344  1.00  0.00     0.037 A 
ATOM     15  C15 UNK     1      40.870  10.765   1.005  1.00  0.00     0.065 A 
ATOM     16  C14 UNK     1      40.283  11.820   1.705  1.00  0.00     0.037 A 
ATOM     17  C10 UNK     1      40.018  13.026   1.056  1.00  0.00     0.012 A 
BRANCH  15  18
ATOM     18  O5  UNK     1      41.129   9.589   1.638  1.00  0.00    -0.361 OA
ATOM     19  H12 UNK     1      42.077   9.389   1.555  1.00  0.00     0.217 HD
ENDBRANCH  15  18
ENDBRANCH   3  12
BRANCH   8  20
ATOM     20  O3  UNK     1      40.164  18.810  -3.552  1.00  0.00    -0.360 OA
ATOM     21  H10 UNK     1      39.908  18.144  -4.213  1.00  0.00     0.217 HD
ENDBRANCH   8  20
BRANCH  11  22
ATOM     22  O4  UNK     1      38.005  19.831   0.550  1.00  0.00    -0.361 OA
ATOM     23  H11 UNK     1      38.259  20.733   0.287  1.00  0.00     0.217 HD
ENDBRANCH  11  22
TORSDOF 4
ENDMDL
MODEL 3
REMARK VINA RESULT:      -7.4      2.414      7.056
REMARK  4 active torsions:
REMARK  status: ('A' for Active; 'I' for Inactive)
REMARK    1  A    between atoms: O3_3  and  C7_12 
REMARK    2  A    between atoms: O4_4  and  C12_17 
REMARK    3  A    between atoms: O5_5  and  C15_20 
REMARK    4  A    between atoms: C1_6  and  C3_8 
ROOT
ATOM      1  O1  UNK     1      40.412  17.046  -1.024  1.00  0.00    -0.340 OA
ATOM      2  O2  UNK     1      36.899  14.970  -0.604  1.00  0.00    -0.292 OA
ATOM      3  C1  UNK     1      39.150  17.682  -1.275  1.00  0.00     0.169 C 
ATOM      4  C2  UNK     1      38.046  17.069  -0.416  1.00  0.00     0.121 C 
ATOM      5  C4  UNK     1      39.205  14.929  -1.107  1.00  0.00     0.076 A 
ATOM      6  C5  UNK     1      37.945  15.597  -0.722  1.00  0.00     0.167 C 
ATOM      7  C6  UNK     1      40.374  15.689  -1.215  1.00  0.00     0.089 A 
ATOM      8  C7  UNK     1      39.240  13.549  -1.319  1.00  0.00     0.085 A 
ATOM      9  C8  UNK     1      41.586  15.061  -1.501  1.00  0.00     0.074 A 
ATOM     10  C11 UNK     1      40.451  12.929  -1.627  1.00  0.00     0.074 A 
ATOM     11  C12 UNK     1      41.623  13.682  -1.712  1.00  0.00     0.071 A 
ENDROOT
BRANCH   3  12
ATOM     12  C3  UNK     1      39.297  19.164  -0.998  1.00  0.00    -0.028 A 
ATOM     13  C9  UNK     1      38.634  19.739   0.086  1.00  0.00     0.012 A 
ATOM     14  C13 UNK     1      38.770  21.104   0.341  1.00  0.00     0.037 A 
ATOM     15  C15 UNK     1      39.567  21.892  -0.487  1.00  0.00     0.065 A 
ATOM     16  C14 UNK     1      40.230  21.316  -1.572  1.00  0.00     0.037 A 
ATOM     17  C10 UNK     1      40.095  19.951  -1.826  1.00  0.00     0.012 A 
BRANCH  15  18
ATOM     18  O5  UNK     1      39.699  23.224  -0.239  1.00  0.00    -0.361 OA
ATOM     19  H12 UNK     1      39.558  23.383   0.710  1.00  0.00     0.217 HD
ENDBRANCH  15  18
ENDBRANCH   3  12
BRANCH   8  20
ATOM     20  O3  UNK     1      38.131  12.762  -1.232  1.00  0.00    -0.360 OA
ATOM     21  H10 UNK     1      37.440  13.228  -0.733  1.00  0.00     0.217 HD
ENDBRANCH   8  20
BRANCH  11  22
ATOM     22  O4  UNK     1      42.804  13.071  -2.005  1.00  0.00    -0.361 OA
ATOM     23  H11 UNK     1      42.968  13.141  -2.961  1.00  0.00     0.217 HD
ENDBRANCH  11  22
TORSDOF 4
ENDMDL
MODEL 4
REMARK VINA RESULT:      -7.1      1.308      2.821
REMARK  4 active torsions:
REMARK  status: ('A' for Active; 'I' for Inactive)
REMARK    1  A    between atoms: O3_3  and  C7_12 
REMARK    2  A    between atoms: O4_4  and  C12_17 
REMARK    3  A    between atoms: O5_5  and  C15_20 
REMARK    4  A    between atoms: C1_6  and  C3_8 
ROOT
ATOM      1  O1  UNK     1      40.478  15.168  -2.033  1.00  0.00    -0.340 OA
ATOM      2  O2  UNK     1      38.808  18.105   0.293  1.00  0.00    -0.292 OA
ATOM      3  C1  UNK     1      40.532  15.089  -0.601  1.00  0.00     0.169 C 
ATOM      4  C2  UNK     1      39.324  15.777   0.032  1.00  0.00     0.121 C 
ATOM      5  C4  UNK     1      39.844  17.505  -1.742  1.00  0.00     0.076 A 
ATOM      6  C5  UNK     1      39.300  17.221  -0.397  1.00  0.00     0.167 C 
ATOM      7  C6  UNK     1      40.383  16.456  -2.493  1.00  0.00     0.089 A 
ATOM      8  C7  UNK     1      39.782  18.795  -2.273  1.00  0.00     0.085 A 
ATOM      9  C8  UNK     1      40.829  16.693  -3.793  1.00  0.00     0.074 A 
ATOM     10  C11 UNK     1      40.249  19.030  -3.567  1.00  0.00     0.074 A 
ATOM     11  C12 UNK     1      40.767  17.981  -4.328  1.00  0.00     0.071 A 
ENDROOT
BRANCH   3  12
ATOM     12  C3  UNK     1      40.597  13.628  -0.204  1.00  0.00    -0.028 A 
ATOM     13  C9  UNK     1      40.152  13.228   1.055  1.00  0.00     0.012 A 
ATOM     14  C13 UNK     1      40.211  11.883   1.420  1.00  0.00     0.037 A 
ATOM     15  C15 UNK     1      40.716  10.939   0.526  1.00  0.00     0.065 A 
ATOM     16  C14 UNK     1      41.162  11.341  -0.734  1.00  0.00     0.037 A 
ATOM     17  C10 UNK     1      41.101  12.686  -1.099  1.00  0.00     0.012 A 
BRANCH  15  18
ATOM     18  O5  UNK     1      40.775   9.627   0.882  1.00  0.00    -0.361 OA
ATOM     19  H12 UNK     1      40.524   9.081   0.118  1.00  0.00     0.217 HD
ENDBRANCH  15  18
ENDBRANCH   3  12
BRANCH   8  20
ATOM     20  O3  UNK     1      39.271  19.852  -1.583  1.00  0.00    -0.360 OA
ATOM     21  H10 UNK     1      39.742  20.664  -1.836  1.00  0.00     0.217 HD
ENDBRANCH   8  20
BRANCH  11  22
ATOM     22  O4  UNK     1      41.214  18.214  -5.592  1.00  0.00    -0.361 OA
ATOM     23  H11 UNK     1      41.676  19.071  -5.611  1.00  0.00     0.217 HD
ENDBRANCH  11  22
TORSDOF 4
ENDMDL
MODEL 5
REMARK VINA RESULT:      -6.4      1.571      6.692
REMARK  4 active torsions:
REMARK  status: ('A' for Active; 'I' for Inactive)
REMARK    1  A    between atoms: O3_3  and  C7_12 
REMARK    2  A    between atoms: O4_4  and  C12_17 
REMARK    3  A    between atoms: O5_5  and  C15_20 
REMARK    4  A    between atoms: C1_6  and  C3_8 
ROOT
ATOM      1  O1  UNK     1      40.151  14.013   0.667  1.00  0.00    -0.340 OA
ATOM      2  O2  UNK     1      41.606  10.599  -1.080  1.00  0.00    -0.292 OA
ATOM      3  C1  UNK     1      40.988  14.084  -0.498  1.00  0.00     0.169 C 
ATOM      4  C2  UNK     1      40.815  12.845  -1.373  1.00  0.00     0.121 C 
ATOM      5  C4  UNK     1      40.881  11.697   0.880  1.00  0.00     0.076 A 
ATOM      6  C5  UNK     1      41.167  11.621  -0.567  1.00  0.00     0.167 C 
ATOM      7  C6  UNK     1      40.368  12.883   1.412  1.00  0.00     0.089 A 
ATOM      8  C7  UNK     1      41.081  10.584   1.701  1.00  0.00     0.085 A 
ATOM      9  C8  UNK     1      40.022  12.946   2.762  1.00  0.00     0.074 A 
ATOM     10  C11 UNK     1      40.752  10.659   3.055  1.00  0.00     0.074 A 
ATOM     11  C12 UNK     1      40.218  11.835   3.584  1.00  0.00     0.071 A 
ENDROOT
BRANCH   3  12
ATOM     12  C3  UNK     1      40.639  15.345  -1.262  1.00  0.00    -0.028 A 
ATOM     13  C9  UNK     1      39.938  16.371  -0.629  1.00  0.00     0.012 A 
ATOM     14  C13 UNK     1      39.617  17.532  -1.333  1.00  0.00     0.037 A 
ATOM     15  C15 UNK     1      39.997  17.666  -2.668  1.00  0.00     0.065 A 
ATOM     16  C14 UNK     1      40.699  16.639  -3.300  1.00  0.00     0.037 A 
ATOM     17  C10 UNK     1      41.020  15.479  -2.596  1.00  0.00     0.012 A 
BRANCH  15  18
ATOM     18  O5  UNK     1      39.683  18.799  -3.354  1.00  0.00    -0.361 OA
ATOM     19  H12 UNK     1      40.394  18.989  -3.990  1.00  0.00     0.217 HD
ENDBRANCH  15  18
ENDBRANCH   3  12
BRANCH   8  20
ATOM     20  O3  UNK     1      41.582   9.406   1.236  1.00  0.00    -0.360 OA
ATOM     21  H10 UNK     1      41.638   8.766   1.965  1.00  0.00     0.217 HD
ENDBRANCH   8  20
BRANCH  11  22
ATOM     22  O4  UNK     1      39.892  11.900   4.904  1.00  0.00    -0.361 OA
ATOM     23  H11 UNK     1      38.985  11.566   5.022  1.00  0.00     0.217 HD
ENDBRANCH  11  22
TORSDOF 4
ENDMDL
MODEL 6
REMARK VINA RESULT:      -6.2      1.554      6.705
REMARK  4 active torsions:
REMARK  status: ('A' for Active; 'I' for Inactive)
REMARK    1  A    between atoms: O3_3  and  C7_12 
REMARK    2  A    between atoms: O4_4  and  C12_17 
REMARK    3  A    between atoms: O5_5  and  C15_20 
REMARK    4  A    between atoms: C1_6  and  C3_8 
ROOT
ATOM      1  O1  UNK     1      39.733  14.206   0.307  1.00  0.00    -0.340 OA
ATOM      2  O2  UNK     1      41.978  12.126  -2.424  1.00  0.00    -0.292 OA
ATOM      3  C1  UNK     1      40.627  14.892  -0.583  1.00  0.00     0.169 C 
ATOM      4  C2  UNK     1      40.777  14.135  -1.901  1.00  0.00     0.121 C 
ATOM      5  C4  UNK     1      40.896  12.159  -0.326  1.00  0.00     0.076 A 
ATOM      6  C5  UNK     1      41.303  12.752  -1.617  1.00  0.00     0.167 C 
ATOM      7  C6  UNK     1      40.114  12.913   0.554  1.00  0.00     0.089 A 
ATOM      8  C7  UNK     1      41.251  10.846  -0.007  1.00  0.00     0.085 A 
ATOM      9  C8  UNK     1      39.657  12.340   1.741  1.00  0.00     0.074 A 
ATOM     10  C11 UNK     1      40.808  10.285   1.192  1.00  0.00     0.074 A 
ATOM     11  C12 UNK     1      40.008  11.028   2.062  1.00  0.00     0.071 A 
ENDROOT
BRANCH   3  12
ATOM     12  C3  UNK     1      40.092  16.291  -0.815  1.00  0.00    -0.028 A 
ATOM     13  C9  UNK     1      40.326  16.932  -2.031  1.00  0.00     0.012 A 
ATOM     14  C13 UNK     1      39.833  18.220  -2.244  1.00  0.00     0.037 A 
ATOM     15  C15 UNK     1      39.108  18.865  -1.243  1.00  0.00     0.065 A 
ATOM     16  C14 UNK     1      38.875  18.221  -0.026  1.00  0.00     0.037 A 
ATOM     17  C10 UNK     1      39.367  16.934   0.187  1.00  0.00     0.012 A 
BRANCH  15  18
ATOM     18  O5  UNK     1      38.627  20.121  -1.451  1.00  0.00    -0.361 OA
ATOM     19  H12 UNK     1      38.724  20.343  -2.392  1.00  0.00     0.217 HD
ENDBRANCH  15  18
ENDBRANCH   3  12
BRANCH   8  20
ATOM     20  O3  UNK     1      42.014  10.069  -0.825  1.00  0.00    -0.360 OA
ATOM     21  H10 UNK     1      42.419  10.622  -1.513  1.00  0.00     0.217 HD
ENDBRANCH   8  20
BRANCH  11  22
ATOM     22  O4  UNK     1      39.573  10.473   3.226  1.00  0.00    -0.361 OA
ATOM     23  H11 UNK     1      39.443   9.518   3.092  1.00  0.00     0.217 HD
ENDBRANCH  11  22
TORSDOF 4
ENDMDL
MODEL 7
REMARK VINA RESULT:      -6.1      1.611      6.532
REMARK  4 active torsions:
REMARK  status: ('A' for Active; 'I' for Inactive)
REMARK    1  A    between atoms: O3_3  and  C7_12 
REMARK    2  A    between atoms: O4_4  and  C12_17 
REMARK    3  A    between atoms: O5_5  and  C15_20 
REMARK    4  A    between atoms: C1_6  and  C3_8 
ROOT
ATOM      1  O1  UNK     1      39.353  15.182  -0.358  1.00  0.00    -0.340 OA
ATOM      2  O2  UNK     1      42.529  14.515  -2.867  1.00  0.00    -0.292 OA
ATOM      3  C1  UNK     1      40.281  16.234  -0.662  1.00  0.00     0.169 C 
ATOM      4  C2  UNK     1      40.877  16.054  -2.057  1.00  0.00     0.121 C 
ATOM      5  C4  UNK     1      41.001  13.646  -1.291  1.00  0.00     0.076 A 
ATOM      6  C5  UNK     1      41.577  14.721  -2.125  1.00  0.00     0.167 C 
ATOM      7  C6  UNK     1      39.906  13.933  -0.471  1.00  0.00     0.089 A 
ATOM      8  C7  UNK     1      41.515  12.349  -1.353  1.00  0.00     0.085 A 
ATOM      9  C8  UNK     1      39.302  12.911   0.263  1.00  0.00     0.074 A 
ATOM     10  C11 UNK     1      40.921  11.335  -0.601  1.00  0.00     0.074 A 
ATOM     11  C12 UNK     1      39.813  11.614   0.202  1.00  0.00     0.071 A 
ENDROOT
BRANCH   3  12
ATOM     12  C3  UNK     1      39.558  17.560  -0.544  1.00  0.00    -0.028 A 
ATOM     13  C9  UNK     1      39.743  18.542  -1.517  1.00  0.00     0.012 A 
ATOM     14  C13 UNK     1      39.077  19.763  -1.408  1.00  0.00     0.037 A 
ATOM     15  C15 UNK     1      38.227  20.001  -0.329  1.00  0.00     0.065 A 
ATOM     16  C14 UNK     1      38.043  19.017   0.644  1.00  0.00     0.037 A 
ATOM     17  C10 UNK     1      38.709  17.796   0.535  1.00  0.00     0.012 A 
BRANCH  15  18
ATOM     18  O5  UNK     1      37.578  21.192  -0.223  1.00  0.00    -0.361 OA
ATOM     19  H12 UNK     1      37.733  21.558   0.665  1.00  0.00     0.217 HD
ENDBRANCH  15  18
ENDBRANCH   3  12
BRANCH   8  20
ATOM     20  O3  UNK     1      42.583  12.016  -2.131  1.00  0.00    -0.360 OA
ATOM     21  H10 UNK     1      42.271  11.580  -2.942  1.00  0.00     0.217 HD
ENDBRANCH   8  20
BRANCH  11  22
ATOM     22  O4  UNK     1      39.232  10.619   0.928  1.00  0.00    -0.361 OA
ATOM     23  H11 UNK     1      38.388  10.943   1.287  1.00  0.00     0.217 HD
ENDBRANCH  11  22
TORSDOF 4
ENDMDL
MODEL 8
REMARK VINA RESULT:      -5.6     10.167     13.043
REMARK  4 active torsions:
REMARK  status: ('A' for Active; 'I' for Inactive)
REMARK    1  A    between atoms: O3_3  and  C7_12 
REMARK    2  A    between atoms: O4_4  and  C12_17 
REMARK    3  A    between atoms: O5_5  and  C15_20 
REMARK    4  A    between atoms: C1_6  and  C3_8 
ROOT
ATOM      1  O1  UNK     1      48.353   9.746  -6.891  1.00  0.00    -0.340 OA
ATOM      2  O2  UNK     1      45.791   9.946 -10.088  1.00  0.00    -0.292 OA
ATOM      3  C1  UNK     1      48.013  11.010  -7.480  1.00  0.00     0.169 C 
ATOM      4  C2  UNK     1      46.609  10.975  -8.081  1.00  0.00     0.121 C 
ATOM      5  C4  UNK     1      47.412   8.717  -8.892  1.00  0.00     0.076 A 
ATOM      6  C5  UNK     1      46.549   9.892  -9.128  1.00  0.00     0.167 C 
ATOM      7  C6  UNK     1      48.250   8.701  -7.773  1.00  0.00     0.089 A 
ATOM      8  C7  UNK     1      47.362   7.616  -9.751  1.00  0.00     0.085 A 
ATOM      9  C8  UNK     1      49.014   7.567  -7.494  1.00  0.00     0.074 A 
ATOM     10  C11 UNK     1      48.144   6.493  -9.479  1.00  0.00     0.074 A 
ATOM     11  C12 UNK     1      48.964   6.466  -8.350  1.00  0.00     0.071 A 
ENDROOT
BRANCH   3  12
ATOM     12  C3  UNK     1      48.123  12.080  -6.414  1.00  0.00    -0.028 A 
ATOM     13  C9  UNK     1      48.644  13.333  -6.737  1.00  0.00     0.012 A 
ATOM     14  C13 UNK     1      48.745  14.319  -5.755  1.00  0.00     0.037 A 
ATOM     15  C15 UNK     1      48.326  14.052  -4.452  1.00  0.00     0.065 A 
ATOM     16  C14 UNK     1      47.805  12.797  -4.130  1.00  0.00     0.037 A 
ATOM     17  C10 UNK     1      47.703  11.813  -5.112  1.00  0.00     0.012 A 
BRANCH  15  18
ATOM     18  O5  UNK     1      48.425  15.013  -3.494  1.00  0.00    -0.361 OA
ATOM     19  H12 UNK     1      48.292  14.604  -2.622  1.00  0.00     0.217 HD
ENDBRANCH  15  18
ENDBRANCH   3  12
BRANCH   8  20
ATOM     20  O3  UNK     1      46.567   7.581 -10.857  1.00  0.00    -0.360 OA
ATOM     21  H10 UNK     1      45.823   6.976 -10.704  1.00  0.00     0.217 HD
ENDBRANCH   8  20
BRANCH  11  22
ATOM     22  O4  UNK     1      49.719   5.364  -8.084  1.00  0.00    -0.361 OA
ATOM     23  H11 UNK     1      49.643   4.743  -8.830  1.00  0.00     0.217 HD
ENDBRANCH  11  22
TORSDOF 4
ENDMDL
MODEL 9
REMARK VINA RESULT:      -5.6     10.165     13.020
REMARK  4 active torsions:
REMARK  status: ('A' for Active; 'I' for Inactive)
REMARK    1  A    between atoms: O3_3  and  C7_12 
REMARK    2  A    between atoms: O4_4  and  C12_17 
REMARK    3  A    between atoms: O5_5  and  C15_20 
REMARK    4  A    between atoms: C1_6  and  C3_8 
ROOT
ATOM      1  O1  UNK     1      48.353   9.749  -6.902  1.00  0.00    -0.340 OA
ATOM      2  O2  UNK     1      45.753   9.944 -10.069  1.00  0.00    -0.292 OA
ATOM      3  C1  UNK     1      48.004  11.012  -7.488  1.00  0.00     0.169 C 
ATOM      4  C2  UNK     1      46.594  10.975  -8.073  1.00  0.00     0.121 C 
ATOM      5  C4  UNK     1      47.390   8.718  -8.891  1.00  0.00     0.076 A 
ATOM      6  C5  UNK     1      46.523   9.892  -9.118  1.00  0.00     0.167 C 
ATOM      7  C6  UNK     1      48.241   8.703  -7.782  1.00  0.00     0.089 A 
ATOM      8  C7  UNK     1      47.331   7.616  -9.749  1.00  0.00     0.085 A 
ATOM      9  C8  UNK     1      49.009   7.571  -7.511  1.00  0.00     0.074 A 
ATOM     10  C11 UNK     1      48.117   6.494  -9.485  1.00  0.00     0.074 A 
ATOM     11  C12 UNK     1      48.950   6.468  -8.365  1.00  0.00     0.071 A 
ENDROOT
BRANCH   3  12
ATOM     12  C3  UNK     1      48.125  12.083  -6.424  1.00  0.00    -0.028 A 
ATOM     13  C9  UNK     1      47.720  11.815  -5.117  1.00  0.00     0.012 A 
ATOM     14  C13 UNK     1      47.832  12.801  -4.136  1.00  0.00     0.037 A 
ATOM     15  C15 UNK     1      48.349  14.054  -4.463  1.00  0.00     0.065 A 
ATOM     16  C14 UNK     1      48.754  14.322  -5.772  1.00  0.00     0.037 A 
ATOM     17  C10 UNK     1      48.643  13.335  -6.751  1.00  0.00     0.012 A 
BRANCH  15  18
ATOM     18  O5  UNK     1      48.458  15.017  -3.507  1.00  0.00    -0.361 OA
ATOM     19  H12 UNK     1      49.397  15.138  -3.287  1.00  0.00     0.217 HD
ENDBRANCH  15  18
ENDBRANCH   3  12
BRANCH   8  20
ATOM     20  O3  UNK     1      46.524   7.580 -10.845  1.00  0.00    -0.360 OA
ATOM     21  H10 UNK     1      47.022   7.234 -11.605  1.00  0.00     0.217 HD
ENDBRANCH   8  20
BRANCH  11  22
ATOM     22  O4  UNK     1      49.709   5.368  -8.108  1.00  0.00    -0.361 OA
ATOM     23  H11 UNK     1      50.045   5.013  -8.949  1.00  0.00     0.217 HD
ENDBRANCH  11  22
TORSDOF 4
ENDMDL
MODEL 10
REMARK VINA RESULT:      -5.6      9.738     12.127
REMARK  4 active torsions:
REMARK  status: ('A' for Active; 'I' for Inactive)
REMARK    1  A    between atoms: O3_3  and  C7_12 
REMARK    2  A    between atoms: O4_4  and  C12_17 
REMARK    3  A    between atoms: O5_5  and  C15_20 
REMARK    4  A    between atoms: C1_6  and  C3_8 
ROOT
ATOM      1  O1  UNK     1      46.216  11.070  -7.740  1.00  0.00    -0.340 OA
ATOM      2  O2  UNK     1      48.980   9.922 -10.545  1.00  0.00    -0.292 OA
ATOM      3  C1  UNK     1      47.618  11.072  -7.432  1.00  0.00     0.169 C 
ATOM      4  C2  UNK     1      48.454  11.339  -8.682  1.00  0.00     0.121 C 
ATOM      5  C4  UNK     1      46.788   9.725  -9.692  1.00  0.00     0.076 A 
ATOM      6  C5  UNK     1      48.160  10.274  -9.707  1.00  0.00     0.167 C 
ATOM      7  C6  UNK     1      45.886  10.171  -8.721  1.00  0.00     0.089 A 
ATOM      8  C7  UNK     1      46.383   8.803 -10.660  1.00  0.00     0.085 A 
ATOM      9  C8  UNK     1      44.566   9.719  -8.741  1.00  0.00     0.074 A 
ATOM     10  C11 UNK     1      45.067   8.338 -10.662  1.00  0.00     0.074 A 
ATOM     11  C12 UNK     1      44.159   8.800  -9.708  1.00  0.00     0.071 A 
ENDROOT
BRANCH   3  12
ATOM     12  C3  UNK     1      47.873  12.122  -6.370  1.00  0.00    -0.028 A 
ATOM     13  C9  UNK     1      47.616  11.833  -5.030  1.00  0.00     0.012 A 
ATOM     14  C13 UNK     1      47.852  12.800  -4.052  1.00  0.00     0.037 A 
ATOM     15  C15 UNK     1      48.343  14.054  -4.414  1.00  0.00     0.065 A 
ATOM     16  C14 UNK     1      48.600  14.341  -5.756  1.00  0.00     0.037 A 
ATOM     17  C10 UNK     1      48.366  13.374  -6.733  1.00  0.00     0.012 A 
BRANCH  15  18
ATOM     18  O5  UNK     1      48.573  14.997  -3.461  1.00  0.00    -0.361 OA
ATOM     19  H12 UNK     1      48.173  15.836  -3.745  1.00  0.00     0.217 HD
ENDBRANCH  15  18
ENDBRANCH   3  12
BRANCH   8  20
ATOM     20  O3  UNK     1      47.222   8.332 -11.625  1.00  0.00    -0.360 OA
ATOM     21  H10 UNK     1      47.670   9.077 -12.058  1.00  0.00     0.217 HD
ENDBRANCH   8  20
BRANCH  11  22
ATOM     22  O4  UNK     1      42.874   8.350  -9.720  1.00  0.00    -0.361 OA
ATOM     23  H11 UNK     1      42.775   7.661  -9.040  1.00  0.00     0.217 HD
ENDBRANCH  11  22
TORSDOF 4
ENDMDL
MODEL 11
REMARK VINA RESULT:      -5.5     10.169     12.109
REMARK  4 active torsions:
REMARK  status: ('A' for Active; 'I' for Inactive)
REMARK    1  A    between atoms: O3_3  and  C7_12 
REMARK    2  A    between atoms: O4_4  and  C12_17 
REMARK    3  A    between atoms: O5_5  and  C15_20 
REMARK    4  A    between atoms: C1_6  and  C3_8 
ROOT
ATOM      1  O1  UNK     1      46.225  11.380  -7.932  1.00  0.00    -0.340 OA
ATOM      2  O2  UNK     1      48.086   7.961  -9.226  1.00  0.00    -0.292 OA
ATOM      3  C1  UNK     1      47.377  10.867  -7.246  1.00  0.00     0.169 C 
ATOM      4  C2  UNK     1      48.301  10.122  -8.206  1.00  0.00     0.121 C 
ATOM      5  C4  UNK     1      46.093   9.212  -9.041  1.00  0.00     0.076 A 
ATOM      6  C5  UNK     1      47.540   8.987  -8.841  1.00  0.00     0.167 C 
ATOM      7  C6  UNK     1      45.522  10.407  -8.595  1.00  0.00     0.089 A 
ATOM      8  C7  UNK     1      45.314   8.263  -9.707  1.00  0.00     0.085 A 
ATOM      9  C8  UNK     1      44.174  10.668  -8.845  1.00  0.00     0.074 A 
ATOM     10  C11 UNK     1      43.962   8.520  -9.936  1.00  0.00     0.074 A 
ATOM     11  C12 UNK     1      43.394   9.722  -9.511  1.00  0.00     0.071 A 
ENDROOT
BRANCH   3  12
ATOM     12  C3  UNK     1      48.096  12.025  -6.585  1.00  0.00    -0.028 A 
ATOM     13  C9  UNK     1      48.999  12.794  -7.319  1.00  0.00     0.012 A 
ATOM     14  C13 UNK     1      49.660  13.861  -6.711  1.00  0.00     0.037 A 
ATOM     15  C15 UNK     1      49.419  14.158  -5.370  1.00  0.00     0.065 A 
ATOM     16  C14 UNK     1      48.515  13.388  -4.636  1.00  0.00     0.037 A 
ATOM     17  C10 UNK     1      47.853  12.322  -5.245  1.00  0.00     0.012 A 
BRANCH  15  18
ATOM     18  O5  UNK     1      50.065  15.199  -4.776  1.00  0.00    -0.361 OA
ATOM     19  H12 UNK     1      49.680  16.033  -5.096  1.00  0.00     0.217 HD
ENDBRANCH  15  18
ENDBRANCH   3  12
BRANCH   8  20
ATOM     20  O3  UNK     1      45.819   7.081 -10.158  1.00  0.00    -0.360 OA
ATOM     21  H10 UNK     1      46.230   6.600  -9.421  1.00  0.00     0.217 HD
ENDBRANCH   8  20
BRANCH  11  22
ATOM     22  O4  UNK     1      42.076   9.971  -9.744  1.00  0.00    -0.361 OA
ATOM     23  H11 UNK     1      41.545   9.255  -9.354  1.00  0.00     0.217 HD
ENDBRANCH  11  22
TORSDOF 4
ENDMDL
MODEL 12
REMARK VINA RESULT:      -5.5     10.174     12.070
REMARK  4 active torsions:
REMARK  status: ('A' for Active; 'I' for Inactive)
REMARK    1  A    between atoms: O3_3  and  C7_12 
REMARK    2  A    between atoms: O4_4  and  C12_17 
REMARK    3  A    between atoms: O5_5  and  C15_20 
REMARK    4  A    between atoms: C1_6  and  C3_8 
ROOT
ATOM      1  O1  UNK     1      46.233  11.386  -7.931  1.00  0.00    -0.340 OA
ATOM      2  O2  UNK     1      48.093   7.965  -9.220  1.00  0.00    -0.292 OA
ATOM      3  C1  UNK     1      47.384  10.873  -7.243  1.00  0.00     0.169 C 
ATOM      4  C2  UNK     1      48.309  10.126  -8.202  1.00  0.00     0.121 C 
ATOM      5  C4  UNK     1      46.101   9.217  -9.038  1.00  0.00     0.076 A 
ATOM      6  C5  UNK     1      47.547   8.991  -8.837  1.00  0.00     0.167 C 
ATOM      7  C6  UNK     1      45.530  10.413  -8.593  1.00  0.00     0.089 A 
ATOM      8  C7  UNK     1      45.321   8.268  -9.703  1.00  0.00     0.085 A 
ATOM      9  C8  UNK     1      44.182  10.674  -8.844  1.00  0.00     0.074 A 
ATOM     10  C11 UNK     1      43.969   8.525  -9.933  1.00  0.00     0.074 A 
ATOM     11  C12 UNK     1      43.401   9.728  -9.510  1.00  0.00     0.071 A 
ENDROOT
BRANCH   3  12
ATOM     12  C3  UNK     1      48.103  12.032  -6.583  1.00  0.00    -0.028 A 
ATOM     13  C9  UNK     1      47.862  12.326  -5.241  1.00  0.00     0.012 A 
ATOM     14  C13 UNK     1      48.525  13.394  -4.634  1.00  0.00     0.037 A 
ATOM     15  C15 UNK     1      49.427  14.164  -5.367  1.00  0.00     0.065 A 
ATOM     16  C14 UNK     1      49.666  13.868  -6.710  1.00  0.00     0.037 A 
ATOM     17  C10 UNK     1      49.005  12.801  -7.317  1.00  0.00     0.012 A 
BRANCH  15  18
ATOM     18  O5  UNK     1      50.072  15.205  -4.774  1.00  0.00    -0.361 OA
ATOM     19  H12 UNK     1      49.518  16.001  -4.844  1.00  0.00     0.217 HD
ENDBRANCH  15  18
ENDBRANCH   3  12
BRANCH   8  20
ATOM     20  O3  UNK     1      45.825   7.085 -10.153  1.00  0.00    -0.360 OA
ATOM     21  H10 UNK     1      46.700   6.934  -9.759  1.00  0.00     0.217 HD
ENDBRANCH   8  20
BRANCH  11  22
ATOM     22  O4  UNK     1      42.084   9.978  -9.744  1.00  0.00    -0.361 OA
ATOM     23  H11 UNK     1      41.807  10.741  -9.208  1.00  0.00     0.217 HD
ENDBRANCH  11  22
TORSDOF 4
ENDMDL
MODEL 13
REMARK VINA RESULT:      -5.3     10.199     11.228
REMARK  4 active torsions:
REMARK  status: ('A' for Active; 'I' for Inactive)
REMARK    1  A    between atoms: O3_3  and  C7_12 
REMARK    2  A    between atoms: O4_4  and  C12_17 
REMARK    3  A    between atoms: O5_5  and  C15_20 
REMARK    4  A    between atoms: C1_6  and  C3_8 
ROOT
ATOM      1  O1  UNK     1      46.796  11.205  -6.834  1.00  0.00    -0.340 OA
ATOM      2  O2  UNK     1      49.010  12.464 -10.049  1.00  0.00    -0.292 OA
ATOM      3  C1  UNK     1      48.220  11.019  -6.862  1.00  0.00     0.169 C 
ATOM      4  C2  UNK     1      48.900  12.117  -7.678  1.00  0.00     0.121 C 
ATOM      5  C4  UNK     1      46.948  11.666  -9.223  1.00  0.00     0.076 A 
ATOM      6  C5  UNK     1      48.355  12.095  -9.083  1.00  0.00     0.167 C 
ATOM      7  C6  UNK     1      46.241  11.266  -8.086  1.00  0.00     0.089 A 
ATOM      8  C7  UNK     1      46.318  11.701 -10.470  1.00  0.00     0.085 A 
ATOM      9  C8  UNK     1      44.890  10.933  -8.190  1.00  0.00     0.074 A 
ATOM     10  C11 UNK     1      44.972  11.346 -10.571  1.00  0.00     0.074 A 
ATOM     11  C12 UNK     1      44.257  10.968  -9.433  1.00  0.00     0.071 A 
ENDROOT
BRANCH   3  12
ATOM     12  C3  UNK     1      48.729  11.005  -5.436  1.00  0.00    -0.028 A 
ATOM     13  C9  UNK     1      48.283  11.965  -4.528  1.00  0.00     0.012 A 
ATOM     14  C13 UNK     1      48.752  11.951  -3.214  1.00  0.00     0.037 A 
ATOM     15  C15 UNK     1      49.666  10.979  -2.809  1.00  0.00     0.065 A 
ATOM     16  C14 UNK     1      50.112  10.019  -3.719  1.00  0.00     0.037 A 
ATOM     17  C10 UNK     1      49.642  10.032  -5.032  1.00  0.00     0.012 A 
BRANCH  15  18
ATOM     18  O5  UNK     1      50.124  10.966  -1.528  1.00  0.00    -0.361 OA
ATOM     19  H12 UNK     1      51.086  11.112  -1.535  1.00  0.00     0.217 HD
ENDBRANCH  15  18
ENDBRANCH   3  12
BRANCH   8  20
ATOM     20  O3  UNK     1      46.961  12.077 -11.610  1.00  0.00    -0.360 OA
ATOM     21  H10 UNK     1      46.343  12.042 -12.359  1.00  0.00     0.217 HD
ENDBRANCH   8  20
BRANCH  11  22
ATOM     22  O4  UNK     1      42.943  10.631  -9.537  1.00  0.00    -0.361 OA
ATOM     23  H11 UNK     1      42.872   9.766  -9.977  1.00  0.00     0.217 HD
ENDBRANCH  11  22
TORSDOF 4
ENDMDL
