MODEL 1
REMARK VINA RESULT:      -6.0      0.000      0.000
REMARK  4 active torsions:
REMARK  status: ('A' for Active; 'I' for Inactive)
REMARK    1  A    between atoms: O3_3  and  C7_12 
REMARK    2  A    between atoms: O4_4  and  C12_17 
REMARK    3  A    between atoms: O5_5  and  C15_20 
REMARK    4  A    between atoms: C1_6  and  C3_8 
ROOT
ATOM      1  O1  UNK     1      39.089  22.146  11.151  1.00  0.00    -0.340 OA
ATOM      2  O2  UNK     1      37.895  19.572  14.114  1.00  0.00    -0.292 OA
ATOM      3  C1  UNK     1      37.702  22.027  11.506  1.00  0.00     0.169 C 
ATOM      4  C2  UNK     1      37.543  21.655  12.978  1.00  0.00     0.121 C 
ATOM      5  C4  UNK     1      39.443  20.086  12.407  1.00  0.00     0.076 A 
ATOM      6  C5  UNK     1      38.247  20.348  13.235  1.00  0.00     0.167 C 
ATOM      7  C6  UNK     1      39.808  21.012  11.426  1.00  0.00     0.089 A 
ATOM      8  C7  UNK     1      40.223  18.949  12.630  1.00  0.00     0.085 A 
ATOM      9  C8  UNK     1      40.977  20.817  10.689  1.00  0.00     0.074 A 
ATOM     10  C11 UNK     1      41.380  18.748  11.876  1.00  0.00     0.074 A 
ATOM     11  C12 UNK     1      41.759  19.682  10.911  1.00  0.00     0.071 A 
ENDROOT
BRANCH   3  12
ATOM     12  C3  UNK     1      37.015  23.342  11.197  1.00  0.00    -0.028 A 
ATOM     13  C9  UNK     1      35.989  23.385  10.254  1.00  0.00     0.012 A 
ATOM     14  C13 UNK     1      35.355  24.596   9.971  1.00  0.00     0.037 A 
ATOM     15  C15 UNK     1      35.749  25.760  10.629  1.00  0.00     0.065 A 
ATOM     16  C14 UNK     1      36.777  25.715  11.572  1.00  0.00     0.037 A 
ATOM     17  C10 UNK     1      37.409  24.505  11.856  1.00  0.00     0.012 A 
BRANCH  15  18
ATOM     18  O5  UNK     1      35.132  26.941  10.351  1.00  0.00    -0.361 OA
ATOM     19  H12 UNK     1      34.190  26.772  10.180  1.00  0.00     0.217 HD
ENDBRANCH  15  18
ENDBRANCH   3  12
BRANCH   8  20
ATOM     20  O3  UNK     1      39.910  18.013  13.569  1.00  0.00    -0.360 OA
ATOM     21  H10 UNK     1      39.891  17.133  13.158  1.00  0.00     0.217 HD
ENDBRANCH   8  20
BRANCH  11  22
ATOM     22  O4  UNK     1      42.893  19.486  10.183  1.00  0.00    -0.361 OA
ATOM     23  H11 UNK     1      43.291  20.350   9.980  1.00  0.00     0.217 HD
ENDBRANCH  11  22
TORSDOF 4
ENDMDL
MODEL 2
REMARK VINA RESULT:      -6.0      0.065      1.082
REMARK  4 active torsions:
REMARK  status: ('A' for Active; 'I' for Inactive)
REMARK    1  A    between atoms: O3_3  and  C7_12 
REMARK    2  A    between atoms: O4_4  and  C12_17 
REMARK    3  A    between atoms: O5_5  and  C15_20 
REMARK    4  A    between atoms: C1_6  and  C3_8 
ROOT
ATOM      1  O1  UNK     1      39.093  22.145  11.156  1.00  0.00    -0.340 OA
ATOM      2  O2  UNK     1      37.963  19.550  14.125  1.00  0.00    -0.292 OA
ATOM      3  C1  UNK     1      37.711  22.003  11.519  1.00  0.00     0.169 C 
ATOM      4  C2  UNK     1      37.568  21.628  12.993  1.00  0.00     0.121 C 
ATOM      5  C4  UNK     1      39.490  20.091  12.408  1.00  0.00     0.076 A 
ATOM      6  C5  UNK     1      38.296  20.333  13.244  1.00  0.00     0.167 C 
ATOM      7  C6  UNK     1      39.834  21.023  11.425  1.00  0.00     0.089 A 
ATOM      8  C7  UNK     1      40.291  18.967  12.625  1.00  0.00     0.085 A 
ATOM      9  C8  UNK     1      41.000  20.848  10.680  1.00  0.00     0.074 A 
ATOM     10  C11 UNK     1      41.446  18.786  11.863  1.00  0.00     0.074 A 
ATOM     11  C12 UNK     1      41.803  19.727  10.896  1.00  0.00     0.071 A 
ENDROOT
BRANCH   3  12
ATOM     12  C3  UNK     1      37.000  23.306  11.216  1.00  0.00    -0.028 A 
ATOM     13  C9  UNK     1      37.379  24.475  11.875  1.00  0.00     0.012 A 
ATOM     14  C13 UNK     1      36.724  25.675  11.595  1.00  0.00     0.037 A 
ATOM     15  C15 UNK     1      35.692  25.704  10.658  1.00  0.00     0.065 A 
ATOM     16  C14 UNK     1      35.313  24.533  10.000  1.00  0.00     0.037 A 
ATOM     17  C10 UNK     1      35.969  23.334  10.279  1.00  0.00     0.012 A 
BRANCH  15  18
ATOM     18  O5  UNK     1      35.053  26.875  10.386  1.00  0.00    -0.361 OA
ATOM     19  H12 UNK     1      34.984  26.980   9.422  1.00  0.00     0.217 HD
ENDBRANCH  15  18
ENDBRANCH   3  12
BRANCH   8  20
ATOM     20  O3  UNK     1      40.000  18.026  13.566  1.00  0.00    -0.360 OA
ATOM     21  H10 UNK     1      40.514  18.201  14.371  1.00  0.00     0.217 HD
ENDBRANCH   8  20
BRANCH  11  22
ATOM     22  O4  UNK     1      42.935  19.550  10.160  1.00  0.00    -0.361 OA
ATOM     23  H11 UNK     1      43.666  20.030  10.586  1.00  0.00     0.217 HD
ENDBRANCH  11  22
TORSDOF 4
ENDMDL
MODEL 3
REMARK VINA RESULT:      -5.9      2.194      6.932
REMARK  4 active torsions:
REMARK  status: ('A' for Active; 'I' for Inactive)
REMARK    1  A    between atoms: O3_3  and  C7_12 
REMARK    2  A    between atoms: O4_4  and  C12_17 
REMARK    3  A    between atoms: O5_5  and  C15_20 
REMARK    4  A    between atoms: C1_6  and  C3_8 
ROOT
ATOM      1  O1  UNK     1      36.604  23.351  10.604  1.00  0.00    -0.340 OA
ATOM      2  O2  UNK     1      34.536  22.947  14.124  1.00  0.00    -0.292 OA
ATOM      3  C1  UNK     1      37.260  22.876  11.790  1.00  0.00     0.169 C 
ATOM      4  C2  UNK     1      36.282  22.130  12.696  1.00  0.00     0.121 C 
ATOM      5  C4  UNK     1      34.789  24.072  12.063  1.00  0.00     0.076 A 
ATOM      6  C5  UNK     1      35.156  23.057  13.073  1.00  0.00     0.167 C 
ATOM      7  C6  UNK     1      35.521  24.146  10.875  1.00  0.00     0.089 A 
ATOM      8  C7  UNK     1      33.697  24.918  12.273  1.00  0.00     0.085 A 
ATOM      9  C8  UNK     1      35.139  25.045   9.879  1.00  0.00     0.074 A 
ATOM     10  C11 UNK     1      33.332  25.830  11.283  1.00  0.00     0.074 A 
ATOM     11  C12 UNK     1      34.048  25.891  10.086  1.00  0.00     0.071 A 
ENDROOT
BRANCH   3  12
ATOM     12  C3  UNK     1      38.411  21.982  11.376  1.00  0.00    -0.028 A 
ATOM     13  C9  UNK     1      39.352  21.576  12.322  1.00  0.00     0.012 A 
ATOM     14  C13 UNK     1      40.411  20.753  11.941  1.00  0.00     0.037 A 
ATOM     15  C15 UNK     1      40.530  20.336  10.616  1.00  0.00     0.065 A 
ATOM     16  C14 UNK     1      39.588  20.744   9.670  1.00  0.00     0.037 A 
ATOM     17  C10 UNK     1      38.528  21.566  10.051  1.00  0.00     0.012 A 
BRANCH  15  18
ATOM     18  O5  UNK     1      41.564  19.534  10.244  1.00  0.00    -0.361 OA
ATOM     19  H12 UNK     1      41.579  18.751  10.820  1.00  0.00     0.217 HD
ENDBRANCH  15  18
ENDBRANCH   3  12
BRANCH   8  20
ATOM     20  O3  UNK     1      32.953  24.891  13.414  1.00  0.00    -0.360 OA
ATOM     21  H10 UNK     1      32.019  24.746  13.189  1.00  0.00     0.217 HD
ENDBRANCH   8  20
BRANCH  11  22
ATOM     22  O4  UNK     1      33.683  26.777   9.119  1.00  0.00    -0.361 OA
ATOM     23  H11 UNK     1      33.278  27.555   9.541  1.00  0.00     0.217 HD
ENDBRANCH  11  22
TORSDOF 4
ENDMDL
MODEL 4
REMARK VINA RESULT:      -5.7      2.850      4.751
REMARK  4 active torsions:
REMARK  status: ('A' for Active; 'I' for Inactive)
REMARK    1  A    between atoms: O3_3  and  C7_12 
REMARK    2  A    between atoms: O4_4  and  C12_17 
REMARK    3  A    between atoms: O5_5  and  C15_20 
REMARK    4  A    between atoms: C1_6  and  C3_8 
ROOT
ATOM      1  O1  UNK     1      42.686  21.443  10.799  1.00  0.00    -0.340 OA
ATOM      2  O2  UNK     1      43.383  17.556  11.906  1.00  0.00    -0.292 OA
ATOM      3  C1  UNK     1      41.670  20.441  10.639  1.00  0.00     0.169 C 
ATOM      4  C2  UNK     1      41.804  19.350  11.699  1.00  0.00     0.121 C 
ATOM      5  C4  UNK     1      44.254  19.604  11.120  1.00  0.00     0.076 A 
ATOM      6  C5  UNK     1      43.167  18.716  11.583  1.00  0.00     0.167 C 
ATOM      7  C6  UNK     1      43.954  20.925  10.776  1.00  0.00     0.089 A 
ATOM      8  C7  UNK     1      45.571  19.142  11.069  1.00  0.00     0.085 A 
ATOM      9  C8  UNK     1      44.981  21.797  10.411  1.00  0.00     0.074 A 
ATOM     10  C11 UNK     1      46.592  20.013  10.683  1.00  0.00     0.074 A 
ATOM     11  C12 UNK     1      46.299  21.339  10.360  1.00  0.00     0.071 A 
ENDROOT
BRANCH   3  12
ATOM     12  C3  UNK     1      40.315  21.116  10.719  1.00  0.00    -0.028 A 
ATOM     13  C9  UNK     1      39.400  20.964   9.678  1.00  0.00     0.012 A 
ATOM     14  C13 UNK     1      38.153  21.585   9.752  1.00  0.00     0.037 A 
ATOM     15  C15 UNK     1      37.822  22.356  10.866  1.00  0.00     0.065 A 
ATOM     16  C14 UNK     1      38.739  22.507  11.907  1.00  0.00     0.037 A 
ATOM     17  C10 UNK     1      39.985  21.885  11.834  1.00  0.00     0.012 A 
BRANCH  15  18
ATOM     18  O5  UNK     1      36.605  22.962  10.938  1.00  0.00    -0.361 OA
ATOM     19  H12 UNK     1      36.358  23.063  11.873  1.00  0.00     0.217 HD
ENDBRANCH  15  18
ENDBRANCH   3  12
BRANCH   8  20
ATOM     20  O3  UNK     1      45.917  17.865  11.389  1.00  0.00    -0.360 OA
ATOM     21  H10 UNK     1      45.212  17.257  11.110  1.00  0.00     0.217 HD
ENDBRANCH   8  20
BRANCH  11  22
ATOM     22  O4  UNK     1      47.299  22.186   9.993  1.00  0.00    -0.361 OA
ATOM     23  H11 UNK     1      47.164  22.451   9.066  1.00  0.00     0.217 HD
ENDBRANCH  11  22
TORSDOF 4
ENDMDL
MODEL 5
REMARK VINA RESULT:      -5.7      2.850      4.861
REMARK  4 active torsions:
REMARK  status: ('A' for Active; 'I' for Inactive)
REMARK    1  A    between atoms: O3_3  and  C7_12 
REMARK    2  A    between atoms: O4_4  and  C12_17 
REMARK    3  A    between atoms: O5_5  and  C15_20 
REMARK    4  A    between atoms: C1_6  and  C3_8 
ROOT
ATOM      1  O1  UNK     1      42.685  21.443  10.800  1.00  0.00    -0.340 OA
ATOM      2  O2  UNK     1      43.383  17.555  11.907  1.00  0.00    -0.292 OA
ATOM      3  C1  UNK     1      41.669  20.441  10.640  1.00  0.00     0.169 C 
ATOM      4  C2  UNK     1      41.804  19.349  11.699  1.00  0.00     0.121 C 
ATOM      5  C4  UNK     1      44.254  19.604  11.121  1.00  0.00     0.076 A 
ATOM      6  C5  UNK     1      43.166  18.716  11.583  1.00  0.00     0.167 C 
ATOM      7  C6  UNK     1      43.954  20.925  10.776  1.00  0.00     0.089 A 
ATOM      8  C7  UNK     1      45.571  19.142  11.069  1.00  0.00     0.085 A 
ATOM      9  C8  UNK     1      44.981  21.797  10.412  1.00  0.00     0.074 A 
ATOM     10  C11 UNK     1      46.591  20.013  10.684  1.00  0.00     0.074 A 
ATOM     11  C12 UNK     1      46.298  21.339  10.361  1.00  0.00     0.071 A 
ENDROOT
BRANCH   3  12
ATOM     12  C3  UNK     1      40.315  21.115  10.719  1.00  0.00    -0.028 A 
ATOM     13  C9  UNK     1      39.986  21.886  11.834  1.00  0.00     0.012 A 
ATOM     14  C13 UNK     1      38.739  22.507  11.907  1.00  0.00     0.037 A 
ATOM     15  C15 UNK     1      37.822  22.357  10.867  1.00  0.00     0.065 A 
ATOM     16  C14 UNK     1      38.153  21.585   9.752  1.00  0.00     0.037 A 
ATOM     17  C10 UNK     1      39.400  20.965   9.679  1.00  0.00     0.012 A 
BRANCH  15  18
ATOM     18  O5  UNK     1      36.606  22.962  10.939  1.00  0.00    -0.361 OA
ATOM     19  H12 UNK     1      36.551  23.643  10.247  1.00  0.00     0.217 HD
ENDBRANCH  15  18
ENDBRANCH   3  12
BRANCH   8  20
ATOM     20  O3  UNK     1      45.917  17.864  11.389  1.00  0.00    -0.360 OA
ATOM     21  H10 UNK     1      46.873  17.745  11.266  1.00  0.00     0.217 HD
ENDBRANCH   8  20
BRANCH  11  22
ATOM     22  O4  UNK     1      47.298  22.186   9.993  1.00  0.00    -0.361 OA
ATOM     23  H11 UNK     1      47.243  22.993  10.535  1.00  0.00     0.217 HD
ENDBRANCH  11  22
TORSDOF 4
ENDMDL
MODEL 6
REMARK VINA RESULT:      -5.6      1.278      1.672
REMARK  4 active torsions:
REMARK  status: ('A' for Active; 'I' for Inactive)
REMARK    1  A    between atoms: O3_3  and  C7_12 
REMARK    2  A    between atoms: O4_4  and  C12_17 
REMARK    3  A    between atoms: O5_5  and  C15_20 
REMARK    4  A    between atoms: C1_6  and  C3_8 
ROOT
ATOM      1  O1  UNK     1      38.815  22.370  11.132  1.00  0.00    -0.340 OA
ATOM      2  O2  UNK     1      39.145  21.957  15.200  1.00  0.00    -0.292 OA
ATOM      3  C1  UNK     1      37.732  22.744  11.997  1.00  0.00     0.169 C 
ATOM      4  C2  UNK     1      38.252  23.206  13.357  1.00  0.00     0.121 C 
ATOM      5  C4  UNK     1      39.762  21.200  13.050  1.00  0.00     0.076 A 
ATOM      6  C5  UNK     1      39.045  22.090  13.987  1.00  0.00     0.167 C 
ATOM      7  C6  UNK     1      39.624  21.405  11.675  1.00  0.00     0.089 A 
ATOM      8  C7  UNK     1      40.602  20.194  13.533  1.00  0.00     0.085 A 
ATOM      9  C8  UNK     1      40.354  20.623  10.780  1.00  0.00     0.074 A 
ATOM     10  C11 UNK     1      41.314  19.400  12.633  1.00  0.00     0.074 A 
ATOM     11  C12 UNK     1      41.196  19.618  11.259  1.00  0.00     0.071 A 
ENDROOT
BRANCH   3  12
ATOM     12  C3  UNK     1      36.932  23.836  11.318  1.00  0.00    -0.028 A 
ATOM     13  C9  UNK     1      37.188  25.174  11.616  1.00  0.00     0.012 A 
ATOM     14  C13 UNK     1      36.451  26.180  10.990  1.00  0.00     0.037 A 
ATOM     15  C15 UNK     1      35.459  25.847  10.069  1.00  0.00     0.065 A 
ATOM     16  C14 UNK     1      35.203  24.508   9.772  1.00  0.00     0.037 A 
ATOM     17  C10 UNK     1      35.941  23.502  10.397  1.00  0.00     0.012 A 
BRANCH  15  18
ATOM     18  O5  UNK     1      34.739  26.828   9.459  1.00  0.00    -0.361 OA
ATOM     19  H12 UNK     1      34.234  27.314  10.133  1.00  0.00     0.217 HD
ENDBRANCH  15  18
ENDBRANCH   3  12
BRANCH   8  20
ATOM     20  O3  UNK     1      40.769  19.948  14.862  1.00  0.00    -0.360 OA
ATOM     21  H10 UNK     1      40.782  18.989  15.017  1.00  0.00     0.217 HD
ENDBRANCH   8  20
BRANCH  11  22
ATOM     22  O4  UNK     1      41.899  18.846  10.386  1.00  0.00    -0.361 OA
ATOM     23  H11 UNK     1      41.546  18.982   9.489  1.00  0.00     0.217 HD
ENDBRANCH  11  22
TORSDOF 4
ENDMDL
MODEL 7
REMARK VINA RESULT:      -5.6      4.016      4.823
REMARK  4 active torsions:
REMARK  status: ('A' for Active; 'I' for Inactive)
REMARK    1  A    between atoms: O3_3  and  C7_12 
REMARK    2  A    between atoms: O4_4  and  C12_17 
REMARK    3  A    between atoms: O5_5  and  C15_20 
REMARK    4  A    between atoms: C1_6  and  C3_8 
ROOT
ATOM      1  O1  UNK     1      43.376  21.267  11.881  1.00  0.00    -0.340 OA
ATOM      2  O2  UNK     1      39.677  19.672  12.658  1.00  0.00    -0.292 OA
ATOM      3  C1  UNK     1      42.182  21.939  11.451  1.00  0.00     0.169 C 
ATOM      4  C2  UNK     1      41.017  21.645  12.393  1.00  0.00     0.121 C 
ATOM      5  C4  UNK     1      41.973  19.307  12.251  1.00  0.00     0.076 A 
ATOM      6  C5  UNK     1      40.779  20.157  12.432  1.00  0.00     0.167 C 
ATOM      7  C6  UNK     1      43.210  19.913  12.007  1.00  0.00     0.089 A 
ATOM      8  C7  UNK     1      41.878  17.918  12.363  1.00  0.00     0.085 A 
ATOM      9  C8  UNK     1      44.359  19.128  11.911  1.00  0.00     0.074 A 
ATOM     10  C11 UNK     1      43.028  17.137  12.245  1.00  0.00     0.074 A 
ATOM     11  C12 UNK     1      44.267  17.740  12.025  1.00  0.00     0.071 A 
ENDROOT
BRANCH   3  12
ATOM     12  C3  UNK     1      42.467  23.425  11.383  1.00  0.00    -0.028 A 
ATOM     13  C9  UNK     1      41.833  24.297  12.268  1.00  0.00     0.012 A 
ATOM     14  C13 UNK     1      42.095  25.666  12.206  1.00  0.00     0.037 A 
ATOM     15  C15 UNK     1      42.991  26.162  11.259  1.00  0.00     0.065 A 
ATOM     16  C14 UNK     1      43.624  25.289  10.373  1.00  0.00     0.037 A 
ATOM     17  C10 UNK     1      43.362  23.920  10.437  1.00  0.00     0.012 A 
BRANCH  15  18
ATOM     18  O5  UNK     1      43.246  27.497  11.198  1.00  0.00    -0.361 OA
ATOM     19  H12 UNK     1      42.410  27.983  11.297  1.00  0.00     0.217 HD
ENDBRANCH  15  18
ENDBRANCH   3  12
BRANCH   8  20
ATOM     20  O3  UNK     1      40.699  17.277  12.595  1.00  0.00    -0.360 OA
ATOM     21  H10 UNK     1      40.621  17.070  13.541  1.00  0.00     0.217 HD
ENDBRANCH   8  20
BRANCH  11  22
ATOM     22  O4  UNK     1      45.388  16.974  11.918  1.00  0.00    -0.361 OA
ATOM     23  H11 UNK     1      46.025  17.425  11.338  1.00  0.00     0.217 HD
ENDBRANCH  11  22
TORSDOF 4
ENDMDL
MODEL 8
REMARK VINA RESULT:      -5.6      4.388      5.629
REMARK  4 active torsions:
REMARK  status: ('A' for Active; 'I' for Inactive)
REMARK    1  A    between atoms: O3_3  and  C7_12 
REMARK    2  A    between atoms: O4_4  and  C12_17 
REMARK    3  A    between atoms: O5_5  and  C15_20 
REMARK    4  A    between atoms: C1_6  and  C3_8 
ROOT
ATOM      1  O1  UNK     1      41.835  21.447  12.166  1.00  0.00    -0.340 OA
ATOM      2  O2  UNK     1      44.761  18.867  10.899  1.00  0.00    -0.292 OA
ATOM      3  C1  UNK     1      43.197  21.884  12.049  1.00  0.00     0.169 C 
ATOM      4  C2  UNK     1      43.927  21.115  10.949  1.00  0.00     0.121 C 
ATOM      5  C4  UNK     1      42.695  19.172  11.999  1.00  0.00     0.076 A 
ATOM      6  C5  UNK     1      43.890  19.643  11.269  1.00  0.00     0.167 C 
ATOM      7  C6  UNK     1      41.723  20.099  12.387  1.00  0.00     0.089 A 
ATOM      8  C7  UNK     1      42.516  17.811  12.261  1.00  0.00     0.085 A 
ATOM      9  C8  UNK     1      40.554  19.660  13.008  1.00  0.00     0.074 A 
ATOM     10  C11 UNK     1      41.354  17.380  12.902  1.00  0.00     0.074 A 
ATOM     11  C12 UNK     1      40.372  18.301  13.270  1.00  0.00     0.071 A 
ENDROOT
BRANCH   3  12
ATOM     12  C3  UNK     1      43.201  23.373  11.769  1.00  0.00    -0.028 A 
ATOM     13  C9  UNK     1      42.727  24.262  12.732  1.00  0.00     0.012 A 
ATOM     14  C13 UNK     1      42.730  25.634  12.475  1.00  0.00     0.037 A 
ATOM     15  C15 UNK     1      43.207  26.114  11.256  1.00  0.00     0.065 A 
ATOM     16  C14 UNK     1      43.682  25.222  10.292  1.00  0.00     0.037 A 
ATOM     17  C10 UNK     1      43.679  23.851  10.551  1.00  0.00     0.012 A 
BRANCH  15  18
ATOM     18  O5  UNK     1      43.210  27.451  11.004  1.00  0.00    -0.361 OA
ATOM     19  H12 UNK     1      43.323  27.929  11.843  1.00  0.00     0.217 HD
ENDBRANCH  15  18
ENDBRANCH   3  12
BRANCH   8  20
ATOM     20  O3  UNK     1      43.433  16.867  11.910  1.00  0.00    -0.360 OA
ATOM     21  H10 UNK     1      44.328  17.202  12.083  1.00  0.00     0.217 HD
ENDBRANCH   8  20
BRANCH  11  22
ATOM     22  O4  UNK     1      39.237  17.874  13.888  1.00  0.00    -0.361 OA
ATOM     23  H11 UNK     1      38.491  17.954  13.268  1.00  0.00     0.217 HD
ENDBRANCH  11  22
TORSDOF 4
ENDMDL
MODEL 9
REMARK VINA RESULT:      -5.6      4.017      4.797
REMARK  4 active torsions:
REMARK  status: ('A' for Active; 'I' for Inactive)
REMARK    1  A    between atoms: O3_3  and  C7_12 
REMARK    2  A    between atoms: O4_4  and  C12_17 
REMARK    3  A    between atoms: O5_5  and  C15_20 
REMARK    4  A    between atoms: C1_6  and  C3_8 
ROOT
ATOM      1  O1  UNK     1      43.371  21.272  11.900  1.00  0.00    -0.340 OA
ATOM      2  O2  UNK     1      39.670  19.682  12.677  1.00  0.00    -0.292 OA
ATOM      3  C1  UNK     1      42.178  21.945  11.469  1.00  0.00     0.169 C 
ATOM      4  C2  UNK     1      41.012  21.652  12.412  1.00  0.00     0.121 C 
ATOM      5  C4  UNK     1      41.966  19.313  12.271  1.00  0.00     0.076 A 
ATOM      6  C5  UNK     1      40.772  20.165  12.451  1.00  0.00     0.167 C 
ATOM      7  C6  UNK     1      43.203  19.917  12.027  1.00  0.00     0.089 A 
ATOM      8  C7  UNK     1      41.869  17.924  12.384  1.00  0.00     0.085 A 
ATOM      9  C8  UNK     1      44.352  19.132  11.932  1.00  0.00     0.074 A 
ATOM     10  C11 UNK     1      43.019  17.142  12.267  1.00  0.00     0.074 A 
ATOM     11  C12 UNK     1      44.259  17.744  12.047  1.00  0.00     0.071 A 
ENDROOT
BRANCH   3  12
ATOM     12  C3  UNK     1      42.464  23.431  11.400  1.00  0.00    -0.028 A 
ATOM     13  C9  UNK     1      43.356  23.924  10.448  1.00  0.00     0.012 A 
ATOM     14  C13 UNK     1      43.619  25.293  10.384  1.00  0.00     0.037 A 
ATOM     15  C15 UNK     1      42.992  26.166  11.272  1.00  0.00     0.065 A 
ATOM     16  C14 UNK     1      42.100  25.671  12.224  1.00  0.00     0.037 A 
ATOM     17  C10 UNK     1      41.836  24.303  12.287  1.00  0.00     0.012 A 
BRANCH  15  18
ATOM     18  O5  UNK     1      43.250  27.501  11.210  1.00  0.00    -0.361 OA
ATOM     19  H12 UNK     1      43.516  27.729  10.303  1.00  0.00     0.217 HD
ENDBRANCH  15  18
ENDBRANCH   3  12
BRANCH   8  20
ATOM     20  O3  UNK     1      40.689  17.285  12.616  1.00  0.00    -0.360 OA
ATOM     21  H10 UNK     1      40.863  16.411  13.004  1.00  0.00     0.217 HD
ENDBRANCH   8  20
BRANCH  11  22
ATOM     22  O4  UNK     1      45.378  16.976  11.941  1.00  0.00    -0.361 OA
ATOM     23  H11 UNK     1      45.233  16.299  11.257  1.00  0.00     0.217 HD
ENDBRANCH  11  22
TORSDOF 4
ENDMDL
MODEL 10
REMARK VINA RESULT:      -5.6      3.766      7.833
REMARK  4 active torsions:
REMARK  status: ('A' for Active; 'I' for Inactive)
REMARK    1  A    between atoms: O3_3  and  C7_12 
REMARK    2  A    between atoms: O4_4  and  C12_17 
REMARK    3  A    between atoms: O5_5  and  C15_20 
REMARK    4  A    between atoms: C1_6  and  C3_8 
ROOT
ATOM      1  O1  UNK     1      41.519  22.940  12.275  1.00  0.00    -0.340 OA
ATOM      2  O2  UNK     1      44.696  25.216  11.030  1.00  0.00    -0.292 OA
ATOM      3  C1  UNK     1      42.456  22.429  11.314  1.00  0.00     0.169 C 
ATOM      4  C2  UNK     1      43.843  23.030  11.527  1.00  0.00     0.121 C 
ATOM      5  C4  UNK     1      42.479  25.138  11.837  1.00  0.00     0.076 A 
ATOM      6  C5  UNK     1      43.755  24.529  11.405  1.00  0.00     0.167 C 
ATOM      7  C6  UNK     1      41.440  24.308  12.269  1.00  0.00     0.089 A 
ATOM      8  C7  UNK     1      42.327  26.526  11.854  1.00  0.00     0.085 A 
ATOM      9  C8  UNK     1      40.258  24.870  12.752  1.00  0.00     0.074 A 
ATOM     10  C11 UNK     1      41.134  27.083  12.318  1.00  0.00     0.074 A 
ATOM     11  C12 UNK     1      40.104  26.258  12.771  1.00  0.00     0.071 A 
ENDROOT
BRANCH   3  12
ATOM     12  C3  UNK     1      42.490  20.919  11.434  1.00  0.00    -0.028 A 
ATOM     13  C9  UNK     1      43.698  20.237  11.290  1.00  0.00     0.012 A 
ATOM     14  C13 UNK     1      43.729  18.847  11.401  1.00  0.00     0.037 A 
ATOM     15  C15 UNK     1      42.555  18.140  11.655  1.00  0.00     0.065 A 
ATOM     16  C14 UNK     1      41.347  18.824  11.799  1.00  0.00     0.037 A 
ATOM     17  C10 UNK     1      41.315  20.214  11.689  1.00  0.00     0.012 A 
BRANCH  15  18
ATOM     18  O5  UNK     1      42.585  16.784  11.763  1.00  0.00    -0.361 OA
ATOM     19  H12 UNK     1      42.652  16.544  12.703  1.00  0.00     0.217 HD
ENDBRANCH  15  18
ENDBRANCH   3  12
BRANCH   8  20
ATOM     20  O3  UNK     1      43.304  27.380  11.440  1.00  0.00    -0.360 OA
ATOM     21  H10 UNK     1      44.097  26.873  11.195  1.00  0.00     0.217 HD
ENDBRANCH   8  20
BRANCH  11  22
ATOM     22  O4  UNK     1      38.946  26.806  13.231  1.00  0.00    -0.361 OA
ATOM     23  H11 UNK     1      38.703  27.555  12.659  1.00  0.00     0.217 HD
ENDBRANCH  11  22
TORSDOF 4
ENDMDL
MODEL 11
REMARK VINA RESULT:      -5.5      1.765      3.634
REMARK  4 active torsions:
REMARK  status: ('A' for Active; 'I' for Inactive)
REMARK    1  A    between atoms: O3_3  and  C7_12 
REMARK    2  A    between atoms: O4_4  and  C12_17 
REMARK    3  A    between atoms: O5_5  and  C15_20 
REMARK    4  A    between atoms: C1_6  and  C3_8 
ROOT
ATOM      1  O1  UNK     1      39.835  19.755  12.095  1.00  0.00    -0.340 OA
ATOM      2  O2  UNK     1      43.526  20.416  10.430  1.00  0.00    -0.292 OA
ATOM      3  C1  UNK     1      40.291  21.090  11.826  1.00  0.00     0.169 C 
ATOM      4  C2  UNK     1      41.240  21.115  10.630  1.00  0.00     0.121 C 
ATOM      5  C4  UNK     1      42.148  19.051  11.776  1.00  0.00     0.076 A 
ATOM      6  C5  UNK     1      42.420  20.223  10.919  1.00  0.00     0.167 C 
ATOM      7  C6  UNK     1      40.863  18.871  12.297  1.00  0.00     0.089 A 
ATOM      8  C7  UNK     1      43.149  18.109  12.027  1.00  0.00     0.085 A 
ATOM      9  C8  UNK     1      40.571  17.729  13.044  1.00  0.00     0.074 A 
ATOM     10  C11 UNK     1      42.857  16.980  12.792  1.00  0.00     0.074 A 
ATOM     11  C12 UNK     1      41.569  16.786  13.295  1.00  0.00     0.071 A 
ENDROOT
BRANCH   3  12
ATOM     12  C3  UNK     1      39.081  21.969  11.582  1.00  0.00    -0.028 A 
ATOM     13  C9  UNK     1      38.175  21.641  10.573  1.00  0.00     0.012 A 
ATOM     14  C13 UNK     1      37.061  22.450  10.349  1.00  0.00     0.037 A 
ATOM     15  C15 UNK     1      36.853  23.585  11.131  1.00  0.00     0.065 A 
ATOM     16  C14 UNK     1      37.761  23.912  12.140  1.00  0.00     0.037 A 
ATOM     17  C10 UNK     1      38.874  23.102  12.366  1.00  0.00     0.012 A 
BRANCH  15  18
ATOM     18  O5  UNK     1      35.767  24.374  10.912  1.00  0.00    -0.361 OA
ATOM     19  H12 UNK     1      36.054  25.302  10.875  1.00  0.00     0.217 HD
ENDBRANCH  15  18
ENDBRANCH   3  12
BRANCH   8  20
ATOM     20  O3  UNK     1      44.417  18.238  11.547  1.00  0.00    -0.360 OA
ATOM     21  H10 UNK     1      44.940  18.791  12.151  1.00  0.00     0.217 HD
ENDBRANCH   8  20
BRANCH  11  22
ATOM     22  O4  UNK     1      41.287  15.678  14.034  1.00  0.00    -0.361 OA
ATOM     23  H11 UNK     1      41.390  14.890  13.472  1.00  0.00     0.217 HD
ENDBRANCH  11  22
TORSDOF 4
ENDMDL
MODEL 12
REMARK VINA RESULT:      -5.5      4.749      7.986
REMARK  4 active torsions:
REMARK  status: ('A' for Active; 'I' for Inactive)
REMARK    1  A    between atoms: O3_3  and  C7_12 
REMARK    2  A    between atoms: O4_4  and  C12_17 
REMARK    3  A    between atoms: O5_5  and  C15_20 
REMARK    4  A    between atoms: C1_6  and  C3_8 
ROOT
ATOM      1  O1  UNK     1      42.737  22.928  12.706  1.00  0.00    -0.340 OA
ATOM      2  O2  UNK     1      43.685  24.991   9.290  1.00  0.00    -0.292 OA
ATOM      3  C1  UNK     1      42.468  22.368  11.412  1.00  0.00     0.169 C 
ATOM      4  C2  UNK     1      43.478  22.864  10.379  1.00  0.00     0.121 C 
ATOM      5  C4  UNK     1      43.055  25.059  11.564  1.00  0.00     0.076 A 
ATOM      6  C5  UNK     1      43.409  24.368  10.307  1.00  0.00     0.167 C 
ATOM      7  C6  UNK     1      42.761  24.299  12.699  1.00  0.00     0.089 A 
ATOM      8  C7  UNK     1      43.057  26.454  11.630  1.00  0.00     0.085 A 
ATOM      9  C8  UNK     1      42.501  24.936  13.913  1.00  0.00     0.074 A 
ATOM     10  C11 UNK     1      42.775  27.087  12.841  1.00  0.00     0.074 A 
ATOM     11  C12 UNK     1      42.503  26.330  13.982  1.00  0.00     0.071 A 
ENDROOT
BRANCH   3  12
ATOM     12  C3  UNK     1      42.503  20.857  11.527  1.00  0.00    -0.028 A 
ATOM     13  C9  UNK     1      43.711  20.176  11.375  1.00  0.00     0.012 A 
ATOM     14  C13 UNK     1      43.743  18.785  11.482  1.00  0.00     0.037 A 
ATOM     15  C15 UNK     1      42.570  18.078  11.740  1.00  0.00     0.065 A 
ATOM     16  C14 UNK     1      41.362  18.761  11.892  1.00  0.00     0.037 A 
ATOM     17  C10 UNK     1      41.330  20.151  11.786  1.00  0.00     0.012 A 
BRANCH  15  18
ATOM     18  O5  UNK     1      42.601  16.721  11.844  1.00  0.00    -0.361 OA
ATOM     19  H12 UNK     1      42.795  16.342  10.970  1.00  0.00     0.217 HD
ENDBRANCH  15  18
ENDBRANCH   3  12
BRANCH   8  20
ATOM     20  O3  UNK     1      43.332  27.242  10.553  1.00  0.00    -0.360 OA
ATOM     21  H10 UNK     1      44.250  27.098  10.271  1.00  0.00     0.217 HD
ENDBRANCH   8  20
BRANCH  11  22
ATOM     22  O4  UNK     1      42.237  26.953  15.163  1.00  0.00    -0.361 OA
ATOM     23  H11 UNK     1      41.286  27.151  15.208  1.00  0.00     0.217 HD
ENDBRANCH  11  22
TORSDOF 4
ENDMDL
MODEL 13
REMARK VINA RESULT:      -5.5      3.414      4.969
REMARK  4 active torsions:
REMARK  status: ('A' for Active; 'I' for Inactive)
REMARK    1  A    between atoms: O3_3  and  C7_12 
REMARK    2  A    between atoms: O4_4  and  C12_17 
REMARK    3  A    between atoms: O5_5  and  C15_20 
REMARK    4  A    between atoms: C1_6  and  C3_8 
ROOT
ATOM      1  O1  UNK     1      41.359  23.413  11.456  1.00  0.00    -0.340 OA
ATOM      2  O2  UNK     1      45.403  24.098  11.424  1.00  0.00    -0.292 OA
ATOM      3  C1  UNK     1      41.931  24.468  12.244  1.00  0.00     0.169 C 
ATOM      4  C2  UNK     1      43.194  25.020  11.588  1.00  0.00     0.121 C 
ATOM      5  C4  UNK     1      43.628  22.557  11.208  1.00  0.00     0.076 A 
ATOM      6  C5  UNK     1      44.194  23.903  11.430  1.00  0.00     0.167 C 
ATOM      7  C6  UNK     1      42.240  22.392  11.211  1.00  0.00     0.089 A 
ATOM      8  C7  UNK     1      44.467  21.468  10.954  1.00  0.00     0.085 A 
ATOM      9  C8  UNK     1      41.689  21.142  10.927  1.00  0.00     0.074 A 
ATOM     10  C11 UNK     1      43.910  20.216  10.691  1.00  0.00     0.074 A 
ATOM     11  C12 UNK     1      42.524  20.054  10.672  1.00  0.00     0.071 A 
ENDROOT
BRANCH   3  12
ATOM     12  C3  UNK     1      40.888  25.554  12.419  1.00  0.00    -0.028 A 
ATOM     13  C9  UNK     1      41.274  26.894  12.422  1.00  0.00     0.012 A 
ATOM     14  C13 UNK     1      40.313  27.894  12.583  1.00  0.00     0.037 A 
ATOM     15  C15 UNK     1      38.971  27.553  12.741  1.00  0.00     0.065 A 
ATOM     16  C14 UNK     1      38.587  26.211  12.738  1.00  0.00     0.037 A 
ATOM     17  C10 UNK     1      39.546  25.212  12.576  1.00  0.00     0.012 A 
BRANCH  15  18
ATOM     18  O5  UNK     1      38.035  28.528  12.899  1.00  0.00    -0.361 OA
ATOM     19  H12 UNK     1      37.292  28.353  12.296  1.00  0.00     0.217 HD
ENDBRANCH  15  18
ENDBRANCH   3  12
BRANCH   8  20
ATOM     20  O3  UNK     1      45.825  21.572  10.944  1.00  0.00    -0.360 OA
ATOM     21  H10 UNK     1      46.217  20.747  11.274  1.00  0.00     0.217 HD
ENDBRANCH   8  20
BRANCH  11  22
ATOM     22  O4  UNK     1      41.986  18.832  10.407  1.00  0.00    -0.361 OA
ATOM     23  H11 UNK     1      41.040  18.940  10.208  1.00  0.00     0.217 HD
ENDBRANCH  11  22
TORSDOF 4
ENDMDL
MODEL 14
REMARK VINA RESULT:      -5.4      3.063      7.679
REMARK  4 active torsions:
REMARK  status: ('A' for Active; 'I' for Inactive)
REMARK    1  A    between atoms: O3_3  and  C7_12 
REMARK    2  A    between atoms: O4_4  and  C12_17 
REMARK    3  A    between atoms: O5_5  and  C15_20 
REMARK    4  A    between atoms: C1_6  and  C3_8 
ROOT
ATOM      1  O1  UNK     1      42.591  20.081  10.410  1.00  0.00    -0.340 OA
ATOM      2  O2  UNK     1      41.427  18.042  13.774  1.00  0.00    -0.292 OA
ATOM      3  C1  UNK     1      43.535  19.779  11.449  1.00  0.00     0.169 C 
ATOM      4  C2  UNK     1      43.159  18.490  12.175  1.00  0.00     0.121 C 
ATOM      5  C4  UNK     1      40.850  19.511  12.019  1.00  0.00     0.076 A 
ATOM      6  C5  UNK     1      41.782  18.643  12.768  1.00  0.00     0.167 C 
ATOM      7  C6  UNK     1      41.302  20.164  10.869  1.00  0.00     0.089 A 
ATOM      8  C7  UNK     1      39.521  19.645  12.430  1.00  0.00     0.085 A 
ATOM      9  C8  UNK     1      40.414  20.925  10.109  1.00  0.00     0.074 A 
ATOM     10  C11 UNK     1      38.642  20.425  11.677  1.00  0.00     0.074 A 
ATOM     11  C12 UNK     1      39.085  21.059  10.516  1.00  0.00     0.071 A 
ENDROOT
BRANCH   3  12
ATOM     12  C3  UNK     1      44.913  19.674  10.828  1.00  0.00    -0.028 A 
ATOM     13  C9  UNK     1      45.256  20.492   9.752  1.00  0.00     0.012 A 
ATOM     14  C13 UNK     1      46.525  20.395   9.180  1.00  0.00     0.037 A 
ATOM     15  C15 UNK     1      47.449  19.480   9.683  1.00  0.00     0.065 A 
ATOM     16  C14 UNK     1      47.105  18.662  10.760  1.00  0.00     0.037 A 
ATOM     17  C10 UNK     1      45.836  18.760  11.332  1.00  0.00     0.012 A 
BRANCH  15  18
ATOM     18  O5  UNK     1      48.686  19.385   9.125  1.00  0.00    -0.361 OA
ATOM     19  H12 UNK     1      49.317  19.090   9.804  1.00  0.00     0.217 HD
ENDBRANCH  15  18
ENDBRANCH   3  12
BRANCH   8  20
ATOM     20  O3  UNK     1      39.030  19.035  13.544  1.00  0.00    -0.360 OA
ATOM     21  H10 UNK     1      38.241  18.518  13.312  1.00  0.00     0.217 HD
ENDBRANCH   8  20
BRANCH  11  22
ATOM     22  O4  UNK     1      38.222  21.812   9.781  1.00  0.00    -0.361 OA
ATOM     23  H11 UNK     1      38.397  22.754   9.954  1.00  0.00     0.217 HD
ENDBRANCH  11  22
TORSDOF 4
ENDMDL
MODEL 15
REMARK VINA RESULT:      -5.4      3.310      4.879
REMARK  4 active torsions:
REMARK  status: ('A' for Active; 'I' for Inactive)
REMARK    1  A    between atoms: O3_3  and  C7_12 
REMARK    2  A    between atoms: O4_4  and  C12_17 
REMARK    3  A    between atoms: O5_5  and  C15_20 
REMARK    4  A    between atoms: C1_6  and  C3_8 
ROOT
ATOM      1  O1  UNK     1      41.286  22.642  12.031  1.00  0.00    -0.340 OA
ATOM      2  O2  UNK     1      44.873  21.839  10.211  1.00  0.00    -0.292 OA
ATOM      3  C1  UNK     1      42.371  23.579  12.104  1.00  0.00     0.169 C 
ATOM      4  C2  UNK     1      43.258  23.488  10.864  1.00  0.00     0.121 C 
ATOM      5  C4  UNK     1      42.927  21.012  11.259  1.00  0.00     0.076 A 
ATOM      6  C5  UNK     1      43.801  22.087  10.748  1.00  0.00     0.167 C 
ATOM      7  C6  UNK     1      41.707  21.350  11.853  1.00  0.00     0.089 A 
ATOM      8  C7  UNK     1      43.293  19.672  11.114  1.00  0.00     0.085 A 
ATOM      9  C8  UNK     1      40.836  20.343  12.270  1.00  0.00     0.074 A 
ATOM     10  C11 UNK     1      42.428  18.669  11.553  1.00  0.00     0.074 A 
ATOM     11  C12 UNK     1      41.199  19.003  12.125  1.00  0.00     0.071 A 
ENDROOT
BRANCH   3  12
ATOM     12  C3  UNK     1      41.793  24.970  12.261  1.00  0.00    -0.028 A 
ATOM     13  C9  UNK     1      40.441  25.132  12.561  1.00  0.00     0.012 A 
ATOM     14  C13 UNK     1      39.909  26.414  12.706  1.00  0.00     0.037 A 
ATOM     15  C15 UNK     1      40.729  27.531  12.552  1.00  0.00     0.065 A 
ATOM     16  C14 UNK     1      42.082  27.368  12.251  1.00  0.00     0.037 A 
ATOM     17  C10 UNK     1      42.614  26.087  12.107  1.00  0.00     0.012 A 
BRANCH  15  18
ATOM     18  O5  UNK     1      40.209  28.782  12.693  1.00  0.00    -0.361 OA
ATOM     19  H12 UNK     1      39.341  28.715  13.125  1.00  0.00     0.217 HD
ENDBRANCH  15  18
ENDBRANCH   3  12
BRANCH   8  20
ATOM     20  O3  UNK     1      44.471  19.288  10.549  1.00  0.00    -0.360 OA
ATOM     21  H10 UNK     1      44.890  18.605  11.100  1.00  0.00     0.217 HD
ENDBRANCH   8  20
BRANCH  11  22
ATOM     22  O4  UNK     1      40.354  18.021  12.544  1.00  0.00    -0.361 OA
ATOM     23  H11 UNK     1      39.910  18.313  13.359  1.00  0.00     0.217 HD
ENDBRANCH  11  22
TORSDOF 4
ENDMDL
MODEL 16
REMARK VINA RESULT:      -5.4      2.065      3.601
REMARK  4 active torsions:
REMARK  status: ('A' for Active; 'I' for Inactive)
REMARK    1  A    between atoms: O3_3  and  C7_12 
REMARK    2  A    between atoms: O4_4  and  C12_17 
REMARK    3  A    between atoms: O5_5  and  C15_20 
REMARK    4  A    between atoms: C1_6  and  C3_8 
ROOT
ATOM      1  O1  UNK     1      40.380  20.492  11.440  1.00  0.00    -0.340 OA
ATOM      2  O2  UNK     1      43.918  22.508  10.949  1.00  0.00    -0.292 OA
ATOM      3  C1  UNK     1      40.476  21.891  11.749  1.00  0.00     0.169 C 
ATOM      4  C2  UNK     1      41.521  22.575  10.871  1.00  0.00     0.121 C 
ATOM      5  C4  UNK     1      42.818  20.471  11.412  1.00  0.00     0.076 A 
ATOM      6  C5  UNK     1      42.857  21.913  11.089  1.00  0.00     0.167 C 
ATOM      7  C6  UNK     1      41.579  19.838  11.548  1.00  0.00     0.089 A 
ATOM      8  C7  UNK     1      44.002  19.741  11.539  1.00  0.00     0.085 A 
ATOM      9  C8  UNK     1      41.525  18.462  11.777  1.00  0.00     0.074 A 
ATOM     10  C11 UNK     1      43.942  18.370  11.790  1.00  0.00     0.074 A 
ATOM     11  C12 UNK     1      42.707  17.730  11.903  1.00  0.00     0.071 A 
ENDROOT
BRANCH   3  12
ATOM     12  C3  UNK     1      39.110  22.518  11.561  1.00  0.00    -0.028 A 
ATOM     13  C9  UNK     1      38.217  21.977  10.636  1.00  0.00     0.012 A 
ATOM     14  C13 UNK     1      36.959  22.555  10.464  1.00  0.00     0.037 A 
ATOM     15  C15 UNK     1      36.595  23.671  11.215  1.00  0.00     0.065 A 
ATOM     16  C14 UNK     1      37.489  24.212  12.141  1.00  0.00     0.037 A 
ATOM     17  C10 UNK     1      38.746  23.633  12.314  1.00  0.00     0.012 A 
BRANCH  15  18
ATOM     18  O5  UNK     1      35.367  24.235  11.046  1.00  0.00    -0.361 OA
ATOM     19  H12 UNK     1      34.805  23.621  10.545  1.00  0.00     0.217 HD
ENDBRANCH  15  18
ENDBRANCH   3  12
BRANCH   8  20
ATOM     20  O3  UNK     1      45.234  20.310  11.421  1.00  0.00    -0.360 OA
ATOM     21  H10 UNK     1      45.387  20.913  12.167  1.00  0.00     0.217 HD
ENDBRANCH   8  20
BRANCH  11  22
ATOM     22  O4  UNK     1      42.654  16.390  12.139  1.00  0.00    -0.361 OA
ATOM     23  H11 UNK     1      42.371  15.937  11.325  1.00  0.00     0.217 HD
ENDBRANCH  11  22
TORSDOF 4
ENDMDL
MODEL 17
REMARK VINA RESULT:      -5.4      1.640      2.891
REMARK  4 active torsions:
REMARK  status: ('A' for Active; 'I' for Inactive)
REMARK    1  A    between atoms: O3_3  and  C7_12 
REMARK    2  A    between atoms: O4_4  and  C12_17 
REMARK    3  A    between atoms: O5_5  and  C15_20 
REMARK    4  A    between atoms: C1_6  and  C3_8 
ROOT
ATOM      1  O1  UNK     1      37.431  21.437  12.375  1.00  0.00    -0.340 OA
ATOM      2  O2  UNK     1      39.809  21.050   9.055  1.00  0.00    -0.292 OA
ATOM      3  C1  UNK     1      37.533  22.502  11.417  1.00  0.00     0.169 C 
ATOM      4  C2  UNK     1      37.807  21.956  10.017  1.00  0.00     0.121 C 
ATOM      5  C4  UNK     1      39.401  20.475  11.308  1.00  0.00     0.076 A 
ATOM      6  C5  UNK     1      39.091  21.167  10.039  1.00  0.00     0.167 C 
ATOM      7  C6  UNK     1      38.540  20.632  12.398  1.00  0.00     0.089 A 
ATOM      8  C7  UNK     1      40.517  19.640  11.404  1.00  0.00     0.085 A 
ATOM      9  C8  UNK     1      38.778  19.925  13.577  1.00  0.00     0.074 A 
ATOM     10  C11 UNK     1      40.761  18.951  12.593  1.00  0.00     0.074 A 
ATOM     11  C12 UNK     1      39.891  19.089  13.675  1.00  0.00     0.071 A 
ENDROOT
BRANCH   3  12
ATOM     12  C3  UNK     1      36.246  23.300  11.449  1.00  0.00    -0.028 A 
ATOM     13  C9  UNK     1      35.875  24.068  10.345  1.00  0.00     0.012 A 
ATOM     14  C13 UNK     1      34.689  24.802  10.375  1.00  0.00     0.037 A 
ATOM     15  C15 UNK     1      33.876  24.769  11.507  1.00  0.00     0.065 A 
ATOM     16  C14 UNK     1      34.248  24.001  12.611  1.00  0.00     0.037 A 
ATOM     17  C10 UNK     1      35.433  23.266  12.581  1.00  0.00     0.012 A 
BRANCH  15  18
ATOM     18  O5  UNK     1      32.719  25.486  11.536  1.00  0.00    -0.361 OA
ATOM     19  H12 UNK     1      32.775  26.200  10.879  1.00  0.00     0.217 HD
ENDBRANCH  15  18
ENDBRANCH   3  12
BRANCH   8  20
ATOM     20  O3  UNK     1      41.390  19.455  10.375  1.00  0.00    -0.360 OA
ATOM     21  H10 UNK     1      41.782  20.308  10.124  1.00  0.00     0.217 HD
ENDBRANCH   8  20
BRANCH  11  22
ATOM     22  O4  UNK     1      40.129  18.408  14.830  1.00  0.00    -0.361 OA
ATOM     23  H11 UNK     1      39.803  18.936  15.580  1.00  0.00     0.217 HD
ENDBRANCH  11  22
TORSDOF 4
ENDMDL
MODEL 18
REMARK VINA RESULT:      -5.3      4.606      8.768
REMARK  4 active torsions:
REMARK  status: ('A' for Active; 'I' for Inactive)
REMARK    1  A    between atoms: O3_3  and  C7_12 
REMARK    2  A    between atoms: O4_4  and  C12_17 
REMARK    3  A    between atoms: O5_5  and  C15_20 
REMARK    4  A    between atoms: C1_6  and  C3_8 
ROOT
ATOM      1  O1  UNK     1      44.812  22.820  10.454  1.00  0.00    -0.340 OA
ATOM      2  O2  UNK     1      41.305  21.295  11.938  1.00  0.00    -0.292 OA
ATOM      3  C1  UNK     1      44.771  21.510  11.039  1.00  0.00     0.169 C 
ATOM      4  C2  UNK     1      43.399  20.867  10.849  1.00  0.00     0.121 C 
ATOM      5  C4  UNK     1      42.630  23.194  11.477  1.00  0.00     0.076 A 
ATOM      6  C5  UNK     1      42.352  21.742  11.488  1.00  0.00     0.167 C 
ATOM      7  C6  UNK     1      43.836  23.652  10.940  1.00  0.00     0.089 A 
ATOM      8  C7  UNK     1      41.682  24.100  11.958  1.00  0.00     0.085 A 
ATOM      9  C8  UNK     1      44.080  25.023  10.852  1.00  0.00     0.074 A 
ATOM     10  C11 UNK     1      41.940  25.469  11.887  1.00  0.00     0.074 A 
ATOM     11  C12 UNK     1      43.134  25.931  11.330  1.00  0.00     0.071 A 
ENDROOT
BRANCH   3  12
ATOM     12  C3  UNK     1      45.860  20.669  10.406  1.00  0.00    -0.028 A 
ATOM     13  C9  UNK     1      46.380  21.025   9.162  1.00  0.00     0.012 A 
ATOM     14  C13 UNK     1      47.384  20.250   8.580  1.00  0.00     0.037 A 
ATOM     15  C15 UNK     1      47.866  19.121   9.240  1.00  0.00     0.065 A 
ATOM     16  C14 UNK     1      47.345  18.766  10.485  1.00  0.00     0.037 A 
ATOM     17  C10 UNK     1      46.342  19.541  11.068  1.00  0.00     0.012 A 
BRANCH  15  18
ATOM     18  O5  UNK     1      48.845  18.365   8.672  1.00  0.00    -0.361 OA
ATOM     19  H12 UNK     1      49.360  17.936   9.375  1.00  0.00     0.217 HD
ENDBRANCH  15  18
ENDBRANCH   3  12
BRANCH   8  20
ATOM     20  O3  UNK     1      40.494  23.707  12.495  1.00  0.00    -0.360 OA
ATOM     21  H10 UNK     1      40.103  23.008  11.945  1.00  0.00     0.217 HD
ENDBRANCH   8  20
BRANCH  11  22
ATOM     22  O4  UNK     1      43.377  27.268  11.255  1.00  0.00    -0.361 OA
ATOM     23  H11 UNK     1      44.121  27.487  11.844  1.00  0.00     0.217 HD
ENDBRANCH  11  22
TORSDOF 4
ENDMDL
MODEL 19
REMARK VINA RESULT:      -5.3      4.801      8.253
REMARK  4 active torsions:
REMARK  status: ('A' for Active; 'I' for Inactive)
REMARK    1  A    between atoms: O3_3  and  C7_12 
REMARK    2  A    between atoms: O4_4  and  C12_17 
REMARK    3  A    between atoms: O5_5  and  C15_20 
REMARK    4  A    between atoms: C1_6  and  C3_8 
ROOT
ATOM      1  O1  UNK     1      44.388  18.782  11.606  1.00  0.00    -0.340 OA
ATOM      2  O2  UNK     1      41.175  21.227  10.881  1.00  0.00    -0.292 OA
ATOM      3  C1  UNK     1      44.356  19.627  10.445  1.00  0.00     0.169 C 
ATOM      4  C2  UNK     1      43.544  20.893  10.711  1.00  0.00     0.121 C 
ATOM      5  C4  UNK     1      42.000  19.227  11.824  1.00  0.00     0.076 A 
ATOM      6  C5  UNK     1      42.140  20.506  11.097  1.00  0.00     0.167 C 
ATOM      7  C6  UNK     1      43.137  18.448  12.057  1.00  0.00     0.089 A 
ATOM      8  C7  UNK     1      40.755  18.821  12.311  1.00  0.00     0.085 A 
ATOM      9  C8  UNK     1      43.034  17.276  12.808  1.00  0.00     0.074 A 
ATOM     10  C11 UNK     1      40.654  17.638  13.044  1.00  0.00     0.074 A 
ATOM     11  C12 UNK     1      41.792  16.870  13.297  1.00  0.00     0.071 A 
ENDROOT
BRANCH   3  12
ATOM     12  C3  UNK     1      45.782  19.964  10.059  1.00  0.00    -0.028 A 
ATOM     13  C9  UNK     1      46.845  19.371  10.738  1.00  0.00     0.012 A 
ATOM     14  C13 UNK     1      48.158  19.681  10.382  1.00  0.00     0.037 A 
ATOM     15  C15 UNK     1      48.406  20.583   9.348  1.00  0.00     0.065 A 
ATOM     16  C14 UNK     1      47.341  21.176   8.669  1.00  0.00     0.037 A 
ATOM     17  C10 UNK     1      46.028  20.865   9.025  1.00  0.00     0.012 A 
BRANCH  15  18
ATOM     18  O5  UNK     1      49.687  20.886   9.001  1.00  0.00    -0.361 OA
ATOM     19  H12 UNK     1      50.278  20.643   9.734  1.00  0.00     0.217 HD
ENDBRANCH  15  18
ENDBRANCH   3  12
BRANCH   8  20
ATOM     20  O3  UNK     1      39.616  19.539  12.109  1.00  0.00    -0.360 OA
ATOM     21  H10 UNK     1      39.658  19.979  11.244  1.00  0.00     0.217 HD
ENDBRANCH   8  20
BRANCH  11  22
ATOM     22  O4  UNK     1      41.689  15.720  14.019  1.00  0.00    -0.361 OA
ATOM     23  H11 UNK     1      41.580  14.972  13.407  1.00  0.00     0.217 HD
ENDBRANCH  11  22
TORSDOF 4
ENDMDL
