MODEL 1
REMARK VINA RESULT:      -7.4      0.000      0.000
REMARK  4 active torsions:
REMARK  status: ('A' for Active; 'I' for Inactive)
REMARK    1  A    between atoms: O3_3  and  C7_12 
REMARK    2  A    between atoms: O4_4  and  C12_17 
REMARK    3  A    between atoms: O5_5  and  C15_20 
REMARK    4  A    between atoms: C1_6  and  C3_8 
ROOT
ATOM      1  O1  UNK     1      39.869  15.461   0.015  1.00  0.00    -0.340 OA
ATOM      2  O2  UNK     1      41.313  16.346  -3.721  1.00  0.00    -0.292 OA
ATOM      3  C1  UNK     1      40.072  14.424  -0.958  1.00  0.00     0.169 C 
ATOM      4  C2  UNK     1      41.214  14.779  -1.908  1.00  0.00     0.121 C 
ATOM      5  C4  UNK     1      40.086  17.042  -1.829  1.00  0.00     0.076 A 
ATOM      6  C5  UNK     1      40.890  16.075  -2.604  1.00  0.00     0.167 C 
ATOM      7  C6  UNK     1      39.639  16.687  -0.552  1.00  0.00     0.089 A 
ATOM      8  C7  UNK     1      39.811  18.311  -2.345  1.00  0.00     0.085 A 
ATOM      9  C8  UNK     1      38.945  17.616   0.223  1.00  0.00     0.074 A 
ATOM     10  C11 UNK     1      39.098  19.229  -1.573  1.00  0.00     0.074 A 
ATOM     11  C12 UNK     1      38.670  18.885  -0.290  1.00  0.00     0.071 A 
ENDROOT
BRANCH   3  12
ATOM     12  C3  UNK     1      40.353  13.128  -0.226  1.00  0.00    -0.028 A 
ATOM     13  C9  UNK     1      40.923  12.054  -0.908  1.00  0.00     0.012 A 
ATOM     14  C13 UNK     1      41.183  10.860  -0.233  1.00  0.00     0.037 A 
ATOM     15  C15 UNK     1      40.873  10.742   1.121  1.00  0.00     0.065 A 
ATOM     16  C14 UNK     1      40.302  11.819   1.802  1.00  0.00     0.037 A 
ATOM     17  C10 UNK     1      40.043  13.012   1.128  1.00  0.00     0.012 A 
BRANCH  15  18
ATOM     18  O5  UNK     1      41.125   9.578   1.779  1.00  0.00    -0.361 OA
ATOM     19  H12 UNK     1      40.677   9.600   2.642  1.00  0.00     0.217 HD
ENDBRANCH  15  18
ENDBRANCH   3  12
BRANCH   8  20
ATOM     20  O3  UNK     1      40.218  18.706  -3.583  1.00  0.00    -0.360 OA
ATOM     21  H10 UNK     1      40.441  19.651  -3.566  1.00  0.00     0.217 HD
ENDBRANCH   8  20
BRANCH  11  22
ATOM     22  O4  UNK     1      37.982  19.788   0.462  1.00  0.00    -0.361 OA
ATOM     23  H11 UNK     1      37.041  19.539   0.470  1.00  0.00     0.217 HD
ENDBRANCH  11  22
TORSDOF 4
ENDMDL
MODEL 2
REMARK VINA RESULT:      -7.4      2.456      7.133
REMARK  4 active torsions:
REMARK  status: ('A' for Active; 'I' for Inactive)
REMARK    1  A    between atoms: O3_3  and  C7_12 
REMARK    2  A    between atoms: O4_4  and  C12_17 
REMARK    3  A    between atoms: O5_5  and  C15_20 
REMARK    4  A    between atoms: C1_6  and  C3_8 
ROOT
ATOM      1  O1  UNK     1      40.407  17.060  -1.008  1.00  0.00    -0.340 OA
ATOM      2  O2  UNK     1      36.894  14.980  -0.609  1.00  0.00    -0.292 OA
ATOM      3  C1  UNK     1      39.145  17.697  -1.259  1.00  0.00     0.169 C 
ATOM      4  C2  UNK     1      38.039  17.078  -0.407  1.00  0.00     0.121 C 
ATOM      5  C4  UNK     1      39.202  14.943  -1.105  1.00  0.00     0.076 A 
ATOM      6  C5  UNK     1      37.940  15.608  -0.721  1.00  0.00     0.167 C 
ATOM      7  C6  UNK     1      40.370  15.704  -1.205  1.00  0.00     0.089 A 
ATOM      8  C7  UNK     1      39.238  13.564  -1.324  1.00  0.00     0.085 A 
ATOM      9  C8  UNK     1      41.584  15.079  -1.492  1.00  0.00     0.074 A 
ATOM     10  C11 UNK     1      40.451  12.946  -1.631  1.00  0.00     0.074 A 
ATOM     11  C12 UNK     1      41.623  13.700  -1.709  1.00  0.00     0.071 A 
ENDROOT
BRANCH   3  12
ATOM     12  C3  UNK     1      39.290  19.178  -0.975  1.00  0.00    -0.028 A 
ATOM     13  C9  UNK     1      38.632  19.744   0.116  1.00  0.00     0.012 A 
ATOM     14  C13 UNK     1      38.766  21.108   0.378  1.00  0.00     0.037 A 
ATOM     15  C15 UNK     1      39.558  21.904  -0.450  1.00  0.00     0.065 A 
ATOM     16  C14 UNK     1      40.215  21.335  -1.542  1.00  0.00     0.037 A 
ATOM     17  C10 UNK     1      40.082  19.972  -1.803  1.00  0.00     0.012 A 
BRANCH  15  18
ATOM     18  O5  UNK     1      39.688  23.234  -0.194  1.00  0.00    -0.361 OA
ATOM     19  H12 UNK     1      40.049  23.672  -0.983  1.00  0.00     0.217 HD
ENDBRANCH  15  18
ENDBRANCH   3  12
BRANCH   8  20
ATOM     20  O3  UNK     1      38.129  12.776  -1.244  1.00  0.00    -0.360 OA
ATOM     21  H10 UNK     1      37.349  13.283  -1.525  1.00  0.00     0.217 HD
ENDBRANCH   8  20
BRANCH  11  22
ATOM     22  O4  UNK     1      42.805  13.092  -2.001  1.00  0.00    -0.361 OA
ATOM     23  H11 UNK     1      42.661  12.131  -2.051  1.00  0.00     0.217 HD
ENDBRANCH  11  22
TORSDOF 4
ENDMDL
MODEL 3
REMARK VINA RESULT:      -7.1      1.336      3.027
REMARK  4 active torsions:
REMARK  status: ('A' for Active; 'I' for Inactive)
REMARK    1  A    between atoms: O3_3  and  C7_12 
REMARK    2  A    between atoms: O4_4  and  C12_17 
REMARK    3  A    between atoms: O5_5  and  C15_20 
REMARK    4  A    between atoms: C1_6  and  C3_8 
ROOT
ATOM      1  O1  UNK     1      40.494  15.199  -2.077  1.00  0.00    -0.340 OA
ATOM      2  O2  UNK     1      38.821  18.131   0.254  1.00  0.00    -0.292 OA
ATOM      3  C1  UNK     1      40.544  15.116  -0.644  1.00  0.00     0.169 C 
ATOM      4  C2  UNK     1      39.336  15.803  -0.012  1.00  0.00     0.121 C 
ATOM      5  C4  UNK     1      39.860  17.535  -1.780  1.00  0.00     0.076 A 
ATOM      6  C5  UNK     1      39.314  17.249  -0.437  1.00  0.00     0.167 C 
ATOM      7  C6  UNK     1      40.400  16.488  -2.533  1.00  0.00     0.089 A 
ATOM      8  C7  UNK     1      39.800  18.826  -2.309  1.00  0.00     0.085 A 
ATOM      9  C8  UNK     1      40.848  16.727  -3.833  1.00  0.00     0.074 A 
ATOM     10  C11 UNK     1      40.270  19.064  -3.601  1.00  0.00     0.074 A 
ATOM     11  C12 UNK     1      40.788  18.017  -4.364  1.00  0.00     0.071 A 
ENDROOT
BRANCH   3  12
ATOM     12  C3  UNK     1      40.608  13.654  -0.251  1.00  0.00    -0.028 A 
ATOM     13  C9  UNK     1      40.145  13.249   1.000  1.00  0.00     0.012 A 
ATOM     14  C13 UNK     1      40.203  11.902   1.362  1.00  0.00     0.037 A 
ATOM     15  C15 UNK     1      40.724  10.963   0.473  1.00  0.00     0.065 A 
ATOM     16  C14 UNK     1      41.188  11.370  -0.779  1.00  0.00     0.037 A 
ATOM     17  C10 UNK     1      41.128  12.716  -1.141  1.00  0.00     0.012 A 
BRANCH  15  18
ATOM     18  O5  UNK     1      40.782   9.650   0.825  1.00  0.00    -0.361 OA
ATOM     19  H12 UNK     1      41.363   9.557   1.599  1.00  0.00     0.217 HD
ENDBRANCH  15  18
ENDBRANCH   3  12
BRANCH   8  20
ATOM     20  O3  UNK     1      39.290  19.882  -1.617  1.00  0.00    -0.360 OA
ATOM     21  H10 UNK     1      38.641  20.350  -2.169  1.00  0.00     0.217 HD
ENDBRANCH   8  20
BRANCH  11  22
ATOM     22  O4  UNK     1      41.238  18.253  -5.627  1.00  0.00    -0.361 OA
ATOM     23  H11 UNK     1      42.200  18.106  -5.652  1.00  0.00     0.217 HD
ENDBRANCH  11  22
TORSDOF 4
ENDMDL
MODEL 4
REMARK VINA RESULT:      -6.4      1.563      6.686
REMARK  4 active torsions:
REMARK  status: ('A' for Active; 'I' for Inactive)
REMARK    1  A    between atoms: O3_3  and  C7_12 
REMARK    2  A    between atoms: O4_4  and  C12_17 
REMARK    3  A    between atoms: O5_5  and  C15_20 
REMARK    4  A    between atoms: C1_6  and  C3_8 
ROOT
ATOM      1  O1  UNK     1      40.149  14.013   0.668  1.00  0.00    -0.340 OA
ATOM      2  O2  UNK     1      41.609  10.600  -1.077  1.00  0.00    -0.292 OA
ATOM      3  C1  UNK     1      40.987  14.084  -0.495  1.00  0.00     0.169 C 
ATOM      4  C2  UNK     1      40.817  12.845  -1.371  1.00  0.00     0.121 C 
ATOM      5  C4  UNK     1      40.881  11.696   0.883  1.00  0.00     0.076 A 
ATOM      6  C5  UNK     1      41.168  11.621  -0.565  1.00  0.00     0.167 C 
ATOM      7  C6  UNK     1      40.366  12.883   1.414  1.00  0.00     0.089 A 
ATOM      8  C7  UNK     1      41.080  10.584   1.704  1.00  0.00     0.085 A 
ATOM      9  C8  UNK     1      40.017  12.945   2.763  1.00  0.00     0.074 A 
ATOM     10  C11 UNK     1      40.749  10.658   3.057  1.00  0.00     0.074 A 
ATOM     11  C12 UNK     1      40.213  11.834   3.585  1.00  0.00     0.071 A 
ENDROOT
BRANCH   3  12
ATOM     12  C3  UNK     1      40.638  15.345  -1.260  1.00  0.00    -0.028 A 
ATOM     13  C9  UNK     1      41.018  15.476  -2.595  1.00  0.00     0.012 A 
ATOM     14  C13 UNK     1      40.696  16.637  -3.300  1.00  0.00     0.037 A 
ATOM     15  C15 UNK     1      39.996  17.664  -2.668  1.00  0.00     0.065 A 
ATOM     16  C14 UNK     1      39.618  17.532  -1.332  1.00  0.00     0.037 A 
ATOM     17  C10 UNK     1      39.938  16.371  -0.628  1.00  0.00     0.012 A 
BRANCH  15  18
ATOM     18  O5  UNK     1      39.683  18.797  -3.355  1.00  0.00    -0.361 OA
ATOM     19  H12 UNK     1      39.233  18.550  -4.181  1.00  0.00     0.217 HD
ENDBRANCH  15  18
ENDBRANCH   3  12
BRANCH   8  20
ATOM     20  O3  UNK     1      41.583   9.407   1.239  1.00  0.00    -0.360 OA
ATOM     21  H10 UNK     1      42.519   9.523   1.003  1.00  0.00     0.217 HD
ENDBRANCH   8  20
BRANCH  11  22
ATOM     22  O4  UNK     1      39.885  11.899   4.905  1.00  0.00    -0.361 OA
ATOM     23  H11 UNK     1      39.873  12.831   5.182  1.00  0.00     0.217 HD
ENDBRANCH  11  22
TORSDOF 4
ENDMDL
MODEL 5
REMARK VINA RESULT:      -6.3      1.511      6.684
REMARK  4 active torsions:
REMARK  status: ('A' for Active; 'I' for Inactive)
REMARK    1  A    between atoms: O3_3  and  C7_12 
REMARK    2  A    between atoms: O4_4  and  C12_17 
REMARK    3  A    between atoms: O5_5  and  C15_20 
REMARK    4  A    between atoms: C1_6  and  C3_8 
ROOT
ATOM      1  O1  UNK     1      39.676  14.190   0.195  1.00  0.00    -0.340 OA
ATOM      2  O2  UNK     1      42.163  12.301  -2.463  1.00  0.00    -0.292 OA
ATOM      3  C1  UNK     1      40.617  14.940  -0.589  1.00  0.00     0.169 C 
ATOM      4  C2  UNK     1      40.881  14.256  -1.929  1.00  0.00     0.121 C 
ATOM      5  C4  UNK     1      40.929  12.202  -0.453  1.00  0.00     0.076 A 
ATOM      6  C5  UNK     1      41.417  12.870  -1.678  1.00  0.00     0.167 C 
ATOM      7  C6  UNK     1      40.068  12.893   0.403  1.00  0.00     0.089 A 
ATOM      8  C7  UNK     1      41.290  10.881  -0.176  1.00  0.00     0.085 A 
ATOM      9  C8  UNK     1      39.538  12.250   1.522  1.00  0.00     0.074 A 
ATOM     10  C11 UNK     1      40.773  10.249   0.956  1.00  0.00     0.074 A 
ATOM     11  C12 UNK     1      39.895  10.930   1.800  1.00  0.00     0.071 A 
ENDROOT
BRANCH   3  12
ATOM     12  C3  UNK     1      40.068  16.338  -0.789  1.00  0.00    -0.028 A 
ATOM     13  C9  UNK     1      39.347  16.954   0.233  1.00  0.00     0.012 A 
ATOM     14  C13 UNK     1      38.842  18.242   0.050  1.00  0.00     0.037 A 
ATOM     15  C15 UNK     1      39.058  18.912  -1.154  1.00  0.00     0.065 A 
ATOM     16  C14 UNK     1      39.780  18.293  -2.176  1.00  0.00     0.037 A 
ATOM     17  C10 UNK     1      40.286  17.006  -1.992  1.00  0.00     0.012 A 
BRANCH  15  18
ATOM     18  O5  UNK     1      38.566  20.167  -1.333  1.00  0.00    -0.361 OA
ATOM     19  H12 UNK     1      37.858  20.136  -1.999  1.00  0.00     0.217 HD
ENDBRANCH  15  18
ENDBRANCH   3  12
BRANCH   8  20
ATOM     20  O3  UNK     1      42.129  10.164  -0.974  1.00  0.00    -0.360 OA
ATOM     21  H10 UNK     1      42.419   9.364  -0.505  1.00  0.00     0.217 HD
ENDBRANCH   8  20
BRANCH  11  22
ATOM     22  O4  UNK     1      39.387  10.306   2.899  1.00  0.00    -0.361 OA
ATOM     23  H11 UNK     1      40.063   9.707   3.262  1.00  0.00     0.217 HD
ENDBRANCH  11  22
TORSDOF 4
ENDMDL
MODEL 6
REMARK VINA RESULT:      -6.1      1.614      6.458
REMARK  4 active torsions:
REMARK  status: ('A' for Active; 'I' for Inactive)
REMARK    1  A    between atoms: O3_3  and  C7_12 
REMARK    2  A    between atoms: O4_4  and  C12_17 
REMARK    3  A    between atoms: O5_5  and  C15_20 
REMARK    4  A    between atoms: C1_6  and  C3_8 
ROOT
ATOM      1  O1  UNK     1      39.349  15.189  -0.358  1.00  0.00    -0.340 OA
ATOM      2  O2  UNK     1      42.530  14.524  -2.860  1.00  0.00    -0.292 OA
ATOM      3  C1  UNK     1      40.278  16.241  -0.659  1.00  0.00     0.169 C 
ATOM      4  C2  UNK     1      40.876  16.062  -2.052  1.00  0.00     0.121 C 
ATOM      5  C4  UNK     1      40.999  13.654  -1.288  1.00  0.00     0.076 A 
ATOM      6  C5  UNK     1      41.577  14.730  -2.120  1.00  0.00     0.167 C 
ATOM      7  C6  UNK     1      39.902  13.940  -0.470  1.00  0.00     0.089 A 
ATOM      8  C7  UNK     1      41.514  12.357  -1.350  1.00  0.00     0.085 A 
ATOM      9  C8  UNK     1      39.297  12.918   0.262  1.00  0.00     0.074 A 
ATOM     10  C11 UNK     1      40.918  11.343  -0.599  1.00  0.00     0.074 A 
ATOM     11  C12 UNK     1      39.809  11.621   0.201  1.00  0.00     0.071 A 
ENDROOT
BRANCH   3  12
ATOM     12  C3  UNK     1      39.554  17.567  -0.542  1.00  0.00    -0.028 A 
ATOM     13  C9  UNK     1      39.748  18.553  -1.509  1.00  0.00     0.012 A 
ATOM     14  C13 UNK     1      39.081  19.774  -1.401  1.00  0.00     0.037 A 
ATOM     15  C15 UNK     1      38.222  20.008  -0.327  1.00  0.00     0.065 A 
ATOM     16  C14 UNK     1      38.030  19.020   0.640  1.00  0.00     0.037 A 
ATOM     17  C10 UNK     1      38.696  17.800   0.531  1.00  0.00     0.012 A 
BRANCH  15  18
ATOM     18  O5  UNK     1      37.572  21.199  -0.222  1.00  0.00    -0.361 OA
ATOM     19  H12 UNK     1      36.624  21.030  -0.090  1.00  0.00     0.217 HD
ENDBRANCH  15  18
ENDBRANCH   3  12
BRANCH   8  20
ATOM     20  O3  UNK     1      42.583  12.025  -2.126  1.00  0.00    -0.360 OA
ATOM     21  H10 UNK     1      42.280  11.514  -2.895  1.00  0.00     0.217 HD
ENDBRANCH   8  20
BRANCH  11  22
ATOM     22  O4  UNK     1      39.226  10.626   0.925  1.00  0.00    -0.361 OA
ATOM     23  H11 UNK     1      38.858   9.964   0.314  1.00  0.00     0.217 HD
ENDBRANCH  11  22
TORSDOF 4
ENDMDL
MODEL 7
REMARK VINA RESULT:      -6.0     22.389     26.256
REMARK  4 active torsions:
REMARK  status: ('A' for Active; 'I' for Inactive)
REMARK    1  A    between atoms: O3_3  and  C7_12 
REMARK    2  A    between atoms: O4_4  and  C12_17 
REMARK    3  A    between atoms: O5_5  and  C15_20 
REMARK    4  A    between atoms: C1_6  and  C3_8 
ROOT
ATOM      1  O1  UNK     1      38.968  -9.875   4.841  1.00  0.00    -0.340 OA
ATOM      2  O2  UNK     1      36.402 -10.686   1.745  1.00  0.00    -0.292 OA
ATOM      3  C1  UNK     1      38.332 -11.158   4.731  1.00  0.00     0.169 C 
ATOM      4  C2  UNK     1      38.058 -11.512   3.271  1.00  0.00     0.121 C 
ATOM      5  C4  UNK     1      37.345  -9.086   3.201  1.00  0.00     0.076 A 
ATOM      6  C5  UNK     1      37.174 -10.452   2.666  1.00  0.00     0.167 C 
ATOM      7  C6  UNK     1      38.250  -8.871   4.245  1.00  0.00     0.089 A 
ATOM      8  C7  UNK     1      36.643  -8.014   2.644  1.00  0.00     0.085 A 
ATOM      9  C8  UNK     1      38.479  -7.576   4.710  1.00  0.00     0.074 A 
ATOM     10  C11 UNK     1      36.860  -6.723   3.127  1.00  0.00     0.074 A 
ATOM     11  C12 UNK     1      37.780  -6.503   4.154  1.00  0.00     0.071 A 
ENDROOT
BRANCH   3  12
ATOM     12  C3  UNK     1      39.225 -12.192   5.385  1.00  0.00    -0.028 A 
ATOM     13  C9  UNK     1      39.535 -12.087   6.741  1.00  0.00     0.012 A 
ATOM     14  C13 UNK     1      40.357 -13.040   7.343  1.00  0.00     0.037 A 
ATOM     15  C15 UNK     1      40.868 -14.096   6.590  1.00  0.00     0.065 A 
ATOM     16  C14 UNK     1      40.558 -14.201   5.234  1.00  0.00     0.037 A 
ATOM     17  C10 UNK     1      39.735 -13.248   4.632  1.00  0.00     0.012 A 
BRANCH  15  18
ATOM     18  O5  UNK     1      41.671 -15.025   7.178  1.00  0.00    -0.361 OA
ATOM     19  H12 UNK     1      42.396 -15.246   6.569  1.00  0.00     0.217 HD
ENDBRANCH  15  18
ENDBRANCH   3  12
BRANCH   8  20
ATOM     20  O3  UNK     1      35.747  -8.167   1.630  1.00  0.00    -0.360 OA
ATOM     21  H10 UNK     1      34.877  -7.838   1.911  1.00  0.00     0.217 HD
ENDBRANCH   8  20
BRANCH  11  22
ATOM     22  O4  UNK     1      37.994  -5.240   4.616  1.00  0.00    -0.361 OA
ATOM     23  H11 UNK     1      38.330  -5.290   5.528  1.00  0.00     0.217 HD
ENDBRANCH  11  22
TORSDOF 4
ENDMDL
MODEL 8
REMARK VINA RESULT:      -6.0     15.974     17.857
REMARK  4 active torsions:
REMARK  status: ('A' for Active; 'I' for Inactive)
REMARK    1  A    between atoms: O3_3  and  C7_12 
REMARK    2  A    between atoms: O4_4  and  C12_17 
REMARK    3  A    between atoms: O5_5  and  C15_20 
REMARK    4  A    between atoms: C1_6  and  C3_8 
ROOT
ATOM      1  O1  UNK     1      44.215   1.759   7.592  1.00  0.00    -0.340 OA
ATOM      2  O2  UNK     1      45.703   0.855  11.306  1.00  0.00    -0.292 OA
ATOM      3  C1  UNK     1      43.531   0.833   8.451  1.00  0.00     0.169 C 
ATOM      4  C2  UNK     1      43.770   1.171   9.921  1.00  0.00     0.121 C 
ATOM      5  C4  UNK     1      46.131   1.510   9.079  1.00  0.00     0.076 A 
ATOM      6  C5  UNK     1      45.250   1.129  10.202  1.00  0.00     0.167 C 
ATOM      7  C6  UNK     1      45.561   1.825   7.842  1.00  0.00     0.089 A 
ATOM      8  C7  UNK     1      47.514   1.596   9.260  1.00  0.00     0.085 A 
ATOM      9  C8  UNK     1      46.373   2.262   6.794  1.00  0.00     0.074 A 
ATOM     10  C11 UNK     1      48.323   2.013   8.203  1.00  0.00     0.074 A 
ATOM     11  C12 UNK     1      47.754   2.350   6.974  1.00  0.00     0.071 A 
ENDROOT
BRANCH   3  12
ATOM     12  C3  UNK     1      42.055   0.869   8.115  1.00  0.00    -0.028 A 
ATOM     13  C9  UNK     1      41.265  -0.260   8.330  1.00  0.00     0.012 A 
ATOM     14  C13 UNK     1      39.904  -0.227   8.022  1.00  0.00     0.037 A 
ATOM     15  C15 UNK     1      39.336   0.934   7.498  1.00  0.00     0.065 A 
ATOM     16  C14 UNK     1      40.128   2.063   7.283  1.00  0.00     0.037 A 
ATOM     17  C10 UNK     1      41.487   2.030   7.593  1.00  0.00     0.012 A 
BRANCH  15  18
ATOM     18  O5  UNK     1      38.009   0.966   7.197  1.00  0.00    -0.361 OA
ATOM     19  H12 UNK     1      37.536   1.435   7.905  1.00  0.00     0.217 HD
ENDBRANCH  15  18
ENDBRANCH   3  12
BRANCH   8  20
ATOM     20  O3  UNK     1      48.121   1.296  10.442  1.00  0.00    -0.360 OA
ATOM     21  H10 UNK     1      48.331   0.348  10.468  1.00  0.00     0.217 HD
ENDBRANCH   8  20
BRANCH  11  22
ATOM     22  O4  UNK     1      48.547   2.764   5.948  1.00  0.00    -0.361 OA
ATOM     23  H11 UNK     1      47.983   3.059   5.212  1.00  0.00     0.217 HD
ENDBRANCH  11  22
TORSDOF 4
ENDMDL
MODEL 9
REMARK VINA RESULT:      -6.0     16.190     18.464
REMARK  4 active torsions:
REMARK  status: ('A' for Active; 'I' for Inactive)
REMARK    1  A    between atoms: O3_3  and  C7_12 
REMARK    2  A    between atoms: O4_4  and  C12_17 
REMARK    3  A    between atoms: O5_5  and  C15_20 
REMARK    4  A    between atoms: C1_6  and  C3_8 
ROOT
ATOM      1  O1  UNK     1      44.038   0.163   9.101  1.00  0.00    -0.340 OA
ATOM      2  O2  UNK     1      40.998   2.223   7.273  1.00  0.00    -0.292 OA
ATOM      3  C1  UNK     1      44.296   0.987   7.953  1.00  0.00     0.169 C 
ATOM      4  C2  UNK     1      43.316   2.156   7.886  1.00  0.00     0.121 C 
ATOM      5  C4  UNK     1      41.676   0.339   8.523  1.00  0.00     0.076 A 
ATOM      6  C5  UNK     1      41.910   1.617   7.821  1.00  0.00     0.167 C 
ATOM      7  C6  UNK     1      42.751  -0.305   9.143  1.00  0.00     0.089 A 
ATOM      8  C7  UNK     1      40.389  -0.199   8.604  1.00  0.00     0.085 A 
ATOM      9  C8  UNK     1      42.531  -1.472   9.876  1.00  0.00     0.074 A 
ATOM     10  C11 UNK     1      40.179  -1.378   9.321  1.00  0.00     0.074 A 
ATOM     11  C12 UNK     1      41.246  -2.011   9.960  1.00  0.00     0.071 A 
ENDROOT
BRANCH   3  12
ATOM     12  C3  UNK     1      45.727   1.477   8.028  1.00  0.00    -0.028 A 
ATOM     13  C9  UNK     1      46.559   1.044   9.061  1.00  0.00     0.012 A 
ATOM     14  C13 UNK     1      47.877   1.496   9.129  1.00  0.00     0.037 A 
ATOM     15  C15 UNK     1      48.362   2.380   8.167  1.00  0.00     0.065 A 
ATOM     16  C14 UNK     1      47.529   2.813   7.134  1.00  0.00     0.037 A 
ATOM     17  C10 UNK     1      46.212   2.361   7.065  1.00  0.00     0.012 A 
BRANCH  15  18
ATOM     18  O5  UNK     1      49.648   2.821   8.234  1.00  0.00    -0.361 OA
ATOM     19  H12 UNK     1      50.223   2.190   7.768  1.00  0.00     0.217 HD
ENDBRANCH  15  18
ENDBRANCH   3  12
BRANCH   8  20
ATOM     20  O3  UNK     1      39.308   0.384   8.015  1.00  0.00    -0.360 OA
ATOM     21  H10 UNK     1      39.519   0.603   7.092  1.00  0.00     0.217 HD
ENDBRANCH   8  20
BRANCH  11  22
ATOM     22  O4  UNK     1      41.035  -3.157  10.664  1.00  0.00    -0.361 OA
ATOM     23  H11 UNK     1      41.893  -3.576  10.849  1.00  0.00     0.217 HD
ENDBRANCH  11  22
TORSDOF 4
ENDMDL
MODEL 10
REMARK VINA RESULT:      -6.0     12.925     15.686
REMARK  4 active torsions:
REMARK  status: ('A' for Active; 'I' for Inactive)
REMARK    1  A    between atoms: O3_3  and  C7_12 
REMARK    2  A    between atoms: O4_4  and  C12_17 
REMARK    3  A    between atoms: O5_5  and  C15_20 
REMARK    4  A    between atoms: C1_6  and  C3_8 
ROOT
ATOM      1  O1  UNK     1      39.034  22.181  11.129  1.00  0.00    -0.340 OA
ATOM      2  O2  UNK     1      37.794  19.652  14.111  1.00  0.00    -0.292 OA
ATOM      3  C1  UNK     1      37.643  22.071  11.466  1.00  0.00     0.169 C 
ATOM      4  C2  UNK     1      37.462  21.720  12.941  1.00  0.00     0.121 C 
ATOM      5  C4  UNK     1      39.366  20.139  12.418  1.00  0.00     0.076 A 
ATOM      6  C5  UNK     1      38.160  20.415  13.226  1.00  0.00     0.167 C 
ATOM      7  C6  UNK     1      39.747  21.050  11.429  1.00  0.00     0.089 A 
ATOM      8  C7  UNK     1      40.141  19.003  12.668  1.00  0.00     0.085 A 
ATOM      9  C8  UNK     1      40.925  20.842  10.711  1.00  0.00     0.074 A 
ATOM     10  C11 UNK     1      41.307  18.789  11.932  1.00  0.00     0.074 A 
ATOM     11  C12 UNK     1      41.702  19.709  10.959  1.00  0.00     0.071 A 
ENDROOT
BRANCH   3  12
ATOM     12  C3  UNK     1      36.963  23.382  11.130  1.00  0.00    -0.028 A 
ATOM     13  C9  UNK     1      37.363  24.557  11.766  1.00  0.00     0.012 A 
ATOM     14  C13 UNK     1      36.737  25.765  11.455  1.00  0.00     0.037 A 
ATOM     15  C15 UNK     1      35.712  25.797  10.511  1.00  0.00     0.065 A 
ATOM     16  C14 UNK     1      35.312  24.620   9.875  1.00  0.00     0.037 A 
ATOM     17  C10 UNK     1      35.939  23.413  10.184  1.00  0.00     0.012 A 
BRANCH  15  18
ATOM     18  O5  UNK     1      35.102  26.975  10.209  1.00  0.00    -0.361 OA
ATOM     19  H12 UNK     1      34.139  26.856  10.273  1.00  0.00     0.217 HD
ENDBRANCH  15  18
ENDBRANCH   3  12
BRANCH   8  20
ATOM     20  O3  UNK     1      39.813  18.081  13.615  1.00  0.00    -0.360 OA
ATOM     21  H10 UNK     1      39.038  17.574  13.321  1.00  0.00     0.217 HD
ENDBRANCH   8  20
BRANCH  11  22
ATOM     22  O4  UNK     1      42.845  19.500  10.250  1.00  0.00    -0.361 OA
ATOM     23  H11 UNK     1      43.155  18.592  10.411  1.00  0.00     0.217 HD
ENDBRANCH  11  22
TORSDOF 4
ENDMDL
MODEL 11
REMARK VINA RESULT:      -5.9     21.905     24.083
REMARK  4 active torsions:
REMARK  status: ('A' for Active; 'I' for Inactive)
REMARK    1  A    between atoms: O3_3  and  C7_12 
REMARK    2  A    between atoms: O4_4  and  C12_17 
REMARK    3  A    between atoms: O5_5  and  C15_20 
REMARK    4  A    between atoms: C1_6  and  C3_8 
ROOT
ATOM      1  O1  UNK     1      39.178  -8.510  -5.049  1.00  0.00    -0.340 OA
ATOM      2  O2  UNK     1      36.678  -5.331  -4.366  1.00  0.00    -0.292 OA
ATOM      3  C1  UNK     1      39.336  -7.284  -5.778  1.00  0.00     0.169 C 
ATOM      4  C2  UNK     1      38.880  -6.088  -4.945  1.00  0.00     0.121 C 
ATOM      5  C4  UNK     1      36.989  -7.671  -4.380  1.00  0.00     0.076 A 
ATOM      6  C5  UNK     1      37.433  -6.274  -4.567  1.00  0.00     0.167 C 
ATOM      7  C6  UNK     1      37.895  -8.710  -4.611  1.00  0.00     0.089 A 
ATOM      8  C7  UNK     1      35.694  -7.949  -3.938  1.00  0.00     0.085 A 
ATOM      9  C8  UNK     1      37.515 -10.030  -4.365  1.00  0.00     0.074 A 
ATOM     10  C11 UNK     1      35.312  -9.273  -3.713  1.00  0.00     0.074 A 
ATOM     11  C12 UNK     1      36.221 -10.311  -3.920  1.00  0.00     0.071 A 
ENDROOT
BRANCH   3  12
ATOM     12  C3  UNK     1      40.790  -7.148  -6.179  1.00  0.00    -0.028 A 
ATOM     13  C9  UNK     1      41.673  -6.439  -5.364  1.00  0.00     0.012 A 
ATOM     14  C13 UNK     1      43.013  -6.314  -5.732  1.00  0.00     0.037 A 
ATOM     15  C15 UNK     1      43.469  -6.897  -6.914  1.00  0.00     0.065 A 
ATOM     16  C14 UNK     1      42.584  -7.605  -7.729  1.00  0.00     0.037 A 
ATOM     17  C10 UNK     1      41.245  -7.731  -7.360  1.00  0.00     0.012 A 
BRANCH  15  18
ATOM     18  O5  UNK     1      44.776  -6.774  -7.274  1.00  0.00    -0.361 OA
ATOM     19  H12 UNK     1      44.903  -5.915  -7.712  1.00  0.00     0.217 HD
ENDBRANCH  15  18
ENDBRANCH   3  12
BRANCH   8  20
ATOM     20  O3  UNK     1      34.771  -6.976  -3.703  1.00  0.00    -0.360 OA
ATOM     21  H10 UNK     1      34.099  -7.306  -3.083  1.00  0.00     0.217 HD
ENDBRANCH   8  20
BRANCH  11  22
ATOM     22  O4  UNK     1      35.846 -11.599  -3.692  1.00  0.00    -0.361 OA
ATOM     23  H11 UNK     1      36.370 -12.186  -4.265  1.00  0.00     0.217 HD
ENDBRANCH  11  22
TORSDOF 4
ENDMDL
MODEL 12
REMARK VINA RESULT:      -5.9     15.918     18.095
REMARK  4 active torsions:
REMARK  status: ('A' for Active; 'I' for Inactive)
REMARK    1  A    between atoms: O3_3  and  C7_12 
REMARK    2  A    between atoms: O4_4  and  C12_17 
REMARK    3  A    between atoms: O5_5  and  C15_20 
REMARK    4  A    between atoms: C1_6  and  C3_8 
ROOT
ATOM      1  O1  UNK     1      42.143  -0.161   8.567  1.00  0.00    -0.340 OA
ATOM      2  O2  UNK     1      39.396   2.494   7.074  1.00  0.00    -0.292 OA
ATOM      3  C1  UNK     1      42.543   0.873   7.655  1.00  0.00     0.169 C 
ATOM      4  C2  UNK     1      41.650   2.104   7.796  1.00  0.00     0.121 C 
ATOM      5  C4  UNK     1      39.849   0.330   7.902  1.00  0.00     0.076 A 
ATOM      6  C5  UNK     1      40.221   1.710   7.524  1.00  0.00     0.167 C 
ATOM      7  C6  UNK     1      40.828  -0.520   8.423  1.00  0.00     0.089 A 
ATOM      8  C7  UNK     1      38.527  -0.105   7.780  1.00  0.00     0.085 A 
ATOM      9  C8  UNK     1      40.476  -1.799   8.856  1.00  0.00     0.074 A 
ATOM     10  C11 UNK     1      38.185  -1.393   8.195  1.00  0.00     0.074 A 
ATOM     11  C12 UNK     1      39.156  -2.237   8.738  1.00  0.00     0.071 A 
ENDROOT
BRANCH   3  12
ATOM     12  C3  UNK     1      43.993   1.216   7.926  1.00  0.00    -0.028 A 
ATOM     13  C9  UNK     1      44.612   0.753   9.087  1.00  0.00     0.012 A 
ATOM     14  C13 UNK     1      45.949   1.069   9.336  1.00  0.00     0.037 A 
ATOM     15  C15 UNK     1      46.663   1.847   8.426  1.00  0.00     0.065 A 
ATOM     16  C14 UNK     1      46.042   2.311   7.266  1.00  0.00     0.037 A 
ATOM     17  C10 UNK     1      44.707   1.994   7.016  1.00  0.00     0.012 A 
BRANCH  15  18
ATOM     18  O5  UNK     1      47.966   2.156   8.670  1.00  0.00    -0.361 OA
ATOM     19  H12 UNK     1      48.032   2.579   9.543  1.00  0.00     0.217 HD
ENDBRANCH  15  18
ENDBRANCH   3  12
BRANCH   8  20
ATOM     20  O3  UNK     1      37.537   0.681   7.275  1.00  0.00    -0.360 OA
ATOM     21  H10 UNK     1      36.723   0.158   7.180  1.00  0.00     0.217 HD
ENDBRANCH   8  20
BRANCH  11  22
ATOM     22  O4  UNK     1      38.815  -3.489   9.149  1.00  0.00    -0.361 OA
ATOM     23  H11 UNK     1      39.623  -4.027   9.224  1.00  0.00     0.217 HD
ENDBRANCH  11  22
TORSDOF 4
ENDMDL
MODEL 13
REMARK VINA RESULT:      -5.8     16.081     18.305
REMARK  4 active torsions:
REMARK  status: ('A' for Active; 'I' for Inactive)
REMARK    1  A    between atoms: O3_3  and  C7_12 
REMARK    2  A    between atoms: O4_4  and  C12_17 
REMARK    3  A    between atoms: O5_5  and  C15_20 
REMARK    4  A    between atoms: C1_6  and  C3_8 
ROOT
ATOM      1  O1  UNK     1      42.559   0.946   7.964  1.00  0.00    -0.340 OA
ATOM      2  O2  UNK     1      41.011  -1.731  10.660  1.00  0.00    -0.292 OA
ATOM      3  C1  UNK     1      43.239   0.671   9.199  1.00  0.00     0.169 C 
ATOM      4  C2  UNK     1      42.966  -0.756   9.669  1.00  0.00     0.121 C 
ATOM      5  C4  UNK     1      40.617  -0.151   8.950  1.00  0.00     0.076 A 
ATOM      6  C5  UNK     1      41.482  -0.938   9.854  1.00  0.00     0.167 C 
ATOM      7  C6  UNK     1      41.207   0.731   8.040  1.00  0.00     0.089 A 
ATOM      8  C7  UNK     1      39.230  -0.318   8.974  1.00  0.00     0.085 A 
ATOM      9  C8  UNK     1      40.410   1.423   7.128  1.00  0.00     0.074 A 
ATOM     10  C11 UNK     1      38.436   0.393   8.074  1.00  0.00     0.074 A 
ATOM     11  C12 UNK     1      39.024   1.257   7.149  1.00  0.00     0.071 A 
ENDROOT
BRANCH   3  12
ATOM     12  C3  UNK     1      44.721   0.904   8.991  1.00  0.00    -0.028 A 
ATOM     13  C9  UNK     1      45.164   1.618   7.878  1.00  0.00     0.012 A 
ATOM     14  C13 UNK     1      46.530   1.833   7.687  1.00  0.00     0.037 A 
ATOM     15  C15 UNK     1      47.450   1.333   8.607  1.00  0.00     0.065 A 
ATOM     16  C14 UNK     1      47.005   0.618   9.720  1.00  0.00     0.037 A 
ATOM     17  C10 UNK     1      45.640   0.404   9.912  1.00  0.00     0.012 A 
BRANCH  15  18
ATOM     18  O5  UNK     1      48.782   1.542   8.420  1.00  0.00    -0.361 OA
ATOM     19  H12 UNK     1      48.904   2.363   7.915  1.00  0.00     0.217 HD
ENDBRANCH  15  18
ENDBRANCH   3  12
BRANCH   8  20
ATOM     20  O3  UNK     1      38.605  -1.160   9.843  1.00  0.00    -0.360 OA
ATOM     21  H10 UNK     1      37.696  -1.323   9.541  1.00  0.00     0.217 HD
ENDBRANCH   8  20
BRANCH  11  22
ATOM     22  O4  UNK     1      38.244   1.942   6.267  1.00  0.00    -0.361 OA
ATOM     23  H11 UNK     1      38.127   1.403   5.466  1.00  0.00     0.217 HD
ENDBRANCH  11  22
TORSDOF 4
ENDMDL
MODEL 14
REMARK VINA RESULT:      -5.8     15.199     17.854
REMARK  4 active torsions:
REMARK  status: ('A' for Active; 'I' for Inactive)
REMARK    1  A    between atoms: O3_3  and  C7_12 
REMARK    2  A    between atoms: O4_4  and  C12_17 
REMARK    3  A    between atoms: O5_5  and  C15_20 
REMARK    4  A    between atoms: C1_6  and  C3_8 
ROOT
ATOM      1  O1  UNK     1      41.979   1.222   9.411  1.00  0.00    -0.340 OA
ATOM      2  O2  UNK     1      38.940   1.347   6.659  1.00  0.00    -0.292 OA
ATOM      3  C1  UNK     1      41.913   2.276   8.439  1.00  0.00     0.169 C 
ATOM      4  C2  UNK     1      40.466   2.571   8.047  1.00  0.00     0.121 C 
ATOM      5  C4  UNK     1      40.341   0.044   8.042  1.00  0.00     0.076 A 
ATOM      6  C5  UNK     1      39.844   1.319   7.484  1.00  0.00     0.167 C 
ATOM      7  C6  UNK     1      41.367   0.069   8.991  1.00  0.00     0.089 A 
ATOM      8  C7  UNK     1      39.765  -1.170   7.658  1.00  0.00     0.085 A 
ATOM      9  C8  UNK     1      41.794  -1.120   9.583  1.00  0.00     0.074 A 
ATOM     10  C11 UNK     1      40.210  -2.358   8.238  1.00  0.00     0.074 A 
ATOM     11  C12 UNK     1      41.219  -2.333   9.203  1.00  0.00     0.071 A 
ENDROOT
BRANCH   3  12
ATOM     12  C3  UNK     1      42.582   3.505   9.019  1.00  0.00    -0.028 A 
ATOM     13  C9  UNK     1      41.857   4.372   9.837  1.00  0.00     0.012 A 
ATOM     14  C13 UNK     1      42.474   5.503  10.371  1.00  0.00     0.037 A 
ATOM     15  C15 UNK     1      43.814   5.768  10.087  1.00  0.00     0.065 A 
ATOM     16  C14 UNK     1      44.538   4.900   9.268  1.00  0.00     0.037 A 
ATOM     17  C10 UNK     1      43.921   3.768   8.735  1.00  0.00     0.012 A 
BRANCH  15  18
ATOM     18  O5  UNK     1      44.415   6.872  10.608  1.00  0.00    -0.361 OA
ATOM     19  H12 UNK     1      44.510   7.539   9.908  1.00  0.00     0.217 HD
ENDBRANCH  15  18
ENDBRANCH   3  12
BRANCH   8  20
ATOM     20  O3  UNK     1      38.767  -1.251   6.734  1.00  0.00    -0.360 OA
ATOM     21  H10 UNK     1      38.161  -0.500   6.843  1.00  0.00     0.217 HD
ENDBRANCH   8  20
BRANCH  11  22
ATOM     22  O4  UNK     1      41.644  -3.495   9.771  1.00  0.00    -0.361 OA
ATOM     23  H11 UNK     1      40.999  -3.770  10.446  1.00  0.00     0.217 HD
ENDBRANCH  11  22
TORSDOF 4
ENDMDL
MODEL 15
REMARK VINA RESULT:      -5.8     12.810     15.419
REMARK  4 active torsions:
REMARK  status: ('A' for Active; 'I' for Inactive)
REMARK    1  A    between atoms: O3_3  and  C7_12 
REMARK    2  A    between atoms: O4_4  and  C12_17 
REMARK    3  A    between atoms: O5_5  and  C15_20 
REMARK    4  A    between atoms: C1_6  and  C3_8 
ROOT
ATOM      1  O1  UNK     1      36.506  23.425  10.608  1.00  0.00    -0.340 OA
ATOM      2  O2  UNK     1      34.507  23.088  14.174  1.00  0.00    -0.292 OA
ATOM      3  C1  UNK     1      37.185  22.975  11.791  1.00  0.00     0.169 C 
ATOM      4  C2  UNK     1      36.227  22.246  12.730  1.00  0.00     0.121 C 
ATOM      5  C4  UNK     1      34.717  24.172  12.088  1.00  0.00     0.076 A 
ATOM      6  C5  UNK     1      35.106  23.179  13.110  1.00  0.00     0.167 C 
ATOM      7  C6  UNK     1      35.427  24.224  10.884  1.00  0.00     0.089 A 
ATOM      8  C7  UNK     1      33.628  25.020  12.302  1.00  0.00     0.085 A 
ATOM      9  C8  UNK     1      35.024  25.103   9.879  1.00  0.00     0.074 A 
ATOM     10  C11 UNK     1      33.243  25.912  11.301  1.00  0.00     0.074 A 
ATOM     11  C12 UNK     1      33.935  25.950  10.089  1.00  0.00     0.071 A 
ENDROOT
BRANCH   3  12
ATOM     12  C3  UNK     1      38.330  22.075  11.373  1.00  0.00    -0.028 A 
ATOM     13  C9  UNK     1      39.311  21.722  12.298  1.00  0.00     0.012 A 
ATOM     14  C13 UNK     1      40.365  20.892  11.913  1.00  0.00     0.037 A 
ATOM     15  C15 UNK     1      40.437  20.418  10.604  1.00  0.00     0.065 A 
ATOM     16  C14 UNK     1      39.455  20.773   9.678  1.00  0.00     0.037 A 
ATOM     17  C10 UNK     1      38.401  21.601  10.064  1.00  0.00     0.012 A 
BRANCH  15  18
ATOM     18  O5  UNK     1      41.466  19.610  10.228  1.00  0.00    -0.361 OA
ATOM     19  H12 UNK     1      41.547  18.884  10.869  1.00  0.00     0.217 HD
ENDBRANCH  15  18
ENDBRANCH   3  12
BRANCH   8  20
ATOM     20  O3  UNK     1      32.906  25.014  13.457  1.00  0.00    -0.360 OA
ATOM     21  H10 UNK     1      33.171  24.256  14.002  1.00  0.00     0.217 HD
ENDBRANCH   8  20
BRANCH  11  22
ATOM     22  O4  UNK     1      33.550  26.817   9.113  1.00  0.00    -0.361 OA
ATOM     23  H11 UNK     1      33.856  26.480   8.253  1.00  0.00     0.217 HD
ENDBRANCH  11  22
TORSDOF 4
ENDMDL
MODEL 16
REMARK VINA RESULT:      -5.8     16.164     19.300
REMARK  4 active torsions:
REMARK  status: ('A' for Active; 'I' for Inactive)
REMARK    1  A    between atoms: O3_3  and  C7_12 
REMARK    2  A    between atoms: O4_4  and  C12_17 
REMARK    3  A    between atoms: O5_5  and  C15_20 
REMARK    4  A    between atoms: C1_6  and  C3_8 
ROOT
ATOM      1  O1  UNK     1      41.439  -0.269   8.000  1.00  0.00    -0.340 OA
ATOM      2  O2  UNK     1      41.615  -2.613  11.362  1.00  0.00    -0.292 OA
ATOM      3  C1  UNK     1      42.357   0.037   9.061  1.00  0.00     0.169 C 
ATOM      4  C2  UNK     1      42.791  -1.231   9.794  1.00  0.00     0.121 C 
ATOM      5  C4  UNK     1      40.326  -1.757   9.580  1.00  0.00     0.076 A 
ATOM      6  C5  UNK     1      41.573  -1.916  10.357  1.00  0.00     0.167 C 
ATOM      7  C6  UNK     1      40.336  -0.959   8.432  1.00  0.00     0.089 A 
ATOM      8  C7  UNK     1      39.162  -2.428   9.962  1.00  0.00     0.085 A 
ATOM      9  C8  UNK     1      39.188  -0.861   7.645  1.00  0.00     0.074 A 
ATOM     10  C11 UNK     1      38.011  -2.310   9.184  1.00  0.00     0.074 A 
ATOM     11  C12 UNK     1      38.024  -1.532   8.024  1.00  0.00     0.071 A 
ENDROOT
BRANCH   3  12
ATOM     12  C3  UNK     1      43.549   0.761   8.469  1.00  0.00    -0.028 A 
ATOM     13  C9  UNK     1      44.785   0.708   9.113  1.00  0.00     0.012 A 
ATOM     14  C13 UNK     1      45.883   1.375   8.567  1.00  0.00     0.037 A 
ATOM     15  C15 UNK     1      45.744   2.092   7.380  1.00  0.00     0.065 A 
ATOM     16  C14 UNK     1      44.506   2.144   6.737  1.00  0.00     0.037 A 
ATOM     17  C10 UNK     1      43.409   1.477   7.282  1.00  0.00     0.012 A 
BRANCH  15  18
ATOM     18  O5  UNK     1      46.814   2.743   6.848  1.00  0.00    -0.361 OA
ATOM     19  H12 UNK     1      47.492   2.850   7.537  1.00  0.00     0.217 HD
ENDBRANCH  15  18
ENDBRANCH   3  12
BRANCH   8  20
ATOM     20  O3  UNK     1      39.097  -3.214  11.073  1.00  0.00    -0.360 OA
ATOM     21  H10 UNK     1      39.596  -4.033  10.923  1.00  0.00     0.217 HD
ENDBRANCH   8  20
BRANCH  11  22
ATOM     22  O4  UNK     1      36.900  -1.427   7.264  1.00  0.00    -0.361 OA
ATOM     23  H11 UNK     1      37.121  -0.965   6.436  1.00  0.00     0.217 HD
ENDBRANCH  11  22
TORSDOF 4
ENDMDL
MODEL 17
REMARK VINA RESULT:      -5.7     20.557     22.162
REMARK  4 active torsions:
REMARK  status: ('A' for Active; 'I' for Inactive)
REMARK    1  A    between atoms: O3_3  and  C7_12 
REMARK    2  A    between atoms: O4_4  and  C12_17 
REMARK    3  A    between atoms: O5_5  and  C15_20 
REMARK    4  A    between atoms: C1_6  and  C3_8 
ROOT
ATOM      1  O1  UNK     1      31.603  -1.827  -9.197  1.00  0.00    -0.340 OA
ATOM      2  O2  UNK     1      28.474  -3.763 -11.010  1.00  0.00    -0.292 OA
ATOM      3  C1  UNK     1      31.840  -2.904 -10.116  1.00  0.00     0.169 C 
ATOM      4  C2  UNK     1      30.736  -2.980 -11.168  1.00  0.00     0.121 C 
ATOM      5  C4  UNK     1      29.281  -2.572  -9.139  1.00  0.00     0.076 A 
ATOM      6  C5  UNK     1      29.411  -3.182 -10.479  1.00  0.00     0.167 C 
ATOM      7  C6  UNK     1      30.379  -1.909  -8.583  1.00  0.00     0.089 A 
ATOM      8  C7  UNK     1      28.064  -2.618  -8.454  1.00  0.00     0.085 A 
ATOM      9  C8  UNK     1      30.250  -1.261  -7.354  1.00  0.00     0.074 A 
ATOM     10  C11 UNK     1      27.947  -1.987  -7.216  1.00  0.00     0.074 A 
ATOM     11  C12 UNK     1      29.035  -1.305  -6.669  1.00  0.00     0.071 A 
ENDROOT
BRANCH   3  12
ATOM     12  C3  UNK     1      33.195  -2.694 -10.760  1.00  0.00    -0.028 A 
ATOM     13  C9  UNK     1      34.184  -3.670 -10.635  1.00  0.00     0.012 A 
ATOM     14  C13 UNK     1      35.431  -3.476 -11.229  1.00  0.00     0.037 A 
ATOM     15  C15 UNK     1      35.689  -2.309 -11.947  1.00  0.00     0.065 A 
ATOM     16  C14 UNK     1      34.698  -1.334 -12.072  1.00  0.00     0.037 A 
ATOM     17  C10 UNK     1      33.451  -1.528 -11.479  1.00  0.00     0.012 A 
BRANCH  15  18
ATOM     18  O5  UNK     1      36.906  -2.120 -12.526  1.00  0.00    -0.361 OA
ATOM     19  H12 UNK     1      36.993  -1.185 -12.778  1.00  0.00     0.217 HD
ENDBRANCH  15  18
ENDBRANCH   3  12
BRANCH   8  20
ATOM     20  O3  UNK     1      26.966  -3.254  -8.948  1.00  0.00    -0.360 OA
ATOM     21  H10 UNK     1      27.003  -3.263  -9.919  1.00  0.00     0.217 HD
ENDBRANCH   8  20
BRANCH  11  22
ATOM     22  O4  UNK     1      28.912  -0.684  -5.464  1.00  0.00    -0.361 OA
ATOM     23  H11 UNK     1      28.448   0.163  -5.591  1.00  0.00     0.217 HD
ENDBRANCH  11  22
TORSDOF 4
ENDMDL
MODEL 18
REMARK VINA RESULT:      -5.7     15.865     16.748
REMARK  4 active torsions:
REMARK  status: ('A' for Active; 'I' for Inactive)
REMARK    1  A    between atoms: O3_3  and  C7_12 
REMARK    2  A    between atoms: O4_4  and  C12_17 
REMARK    3  A    between atoms: O5_5  and  C15_20 
REMARK    4  A    between atoms: C1_6  and  C3_8 
ROOT
ATOM      1  O1  UNK     1      43.511   1.932   7.425  1.00  0.00    -0.340 OA
ATOM      2  O2  UNK     1      44.090   4.763  10.337  1.00  0.00    -0.292 OA
ATOM      3  C1  UNK     1      42.664   1.977   8.584  1.00  0.00     0.169 C 
ATOM      4  C2  UNK     1      42.536   3.403   9.115  1.00  0.00     0.121 C 
ATOM      5  C4  UNK     1      45.022   3.407   8.644  1.00  0.00     0.076 A 
ATOM      6  C5  UNK     1      43.907   3.922   9.466  1.00  0.00     0.167 C 
ATOM      7  C6  UNK     1      44.756   2.457   7.654  1.00  0.00     0.089 A 
ATOM      8  C7  UNK     1      46.319   3.895   8.824  1.00  0.00     0.085 A 
ATOM      9  C8  UNK     1      45.785   2.019   6.819  1.00  0.00     0.074 A 
ATOM     10  C11 UNK     1      47.347   3.438   8.000  1.00  0.00     0.074 A 
ATOM     11  C12 UNK     1      47.081   2.506   6.996  1.00  0.00     0.071 A 
ENDROOT
BRANCH   3  12
ATOM     12  C3  UNK     1      41.310   1.411   8.209  1.00  0.00    -0.028 A 
ATOM     13  C9  UNK     1      40.376   2.215   7.556  1.00  0.00     0.012 A 
ATOM     14  C13 UNK     1      39.129   1.694   7.210  1.00  0.00     0.037 A 
ATOM     15  C15 UNK     1      38.816   0.370   7.518  1.00  0.00     0.065 A 
ATOM     16  C14 UNK     1      39.751  -0.434   8.172  1.00  0.00     0.037 A 
ATOM     17  C10 UNK     1      40.998   0.088   8.516  1.00  0.00     0.012 A 
BRANCH  15  18
ATOM     18  O5  UNK     1      37.599  -0.138   7.181  1.00  0.00    -0.361 OA
ATOM     19  H12 UNK     1      37.684  -0.634   6.350  1.00  0.00     0.217 HD
ENDBRANCH  15  18
ENDBRANCH   3  12
BRANCH   8  20
ATOM     20  O3  UNK     1      46.633   4.817   9.776  1.00  0.00    -0.360 OA
ATOM     21  H10 UNK     1      46.033   5.578   9.703  1.00  0.00     0.217 HD
ENDBRANCH   8  20
BRANCH  11  22
ATOM     22  O4  UNK     1      48.087   2.069   6.189  1.00  0.00    -0.361 OA
ATOM     23  H11 UNK     1      47.700   1.669   5.391  1.00  0.00     0.217 HD
ENDBRANCH  11  22
TORSDOF 4
ENDMDL
MODEL 19
REMARK VINA RESULT:      -5.7     16.918     18.446
REMARK  4 active torsions:
REMARK  status: ('A' for Active; 'I' for Inactive)
REMARK    1  A    between atoms: O3_3  and  C7_12 
REMARK    2  A    between atoms: O4_4  and  C12_17 
REMARK    3  A    between atoms: O5_5  and  C15_20 
REMARK    4  A    between atoms: C1_6  and  C3_8 
ROOT
ATOM      1  O1  UNK     1      46.307   1.925   9.741  1.00  0.00    -0.340 OA
ATOM      2  O2  UNK     1      44.065   1.018   6.427  1.00  0.00    -0.292 OA
ATOM      3  C1  UNK     1      46.940   1.576   8.500  1.00  0.00     0.169 C 
ATOM      4  C2  UNK     1      46.075   1.986   7.309  1.00  0.00     0.121 C 
ATOM      5  C4  UNK     1      44.248   1.039   8.780  1.00  0.00     0.076 A 
ATOM      6  C5  UNK     1      44.739   1.297   7.411  1.00  0.00     0.167 C 
ATOM      7  C6  UNK     1      45.052   1.389   9.869  1.00  0.00     0.089 A 
ATOM      8  C7  UNK     1      42.979   0.492   8.987  1.00  0.00     0.085 A 
ATOM      9  C8  UNK     1      44.571   1.223  11.168  1.00  0.00     0.074 A 
ATOM     10  C11 UNK     1      42.512   0.308  10.289  1.00  0.00     0.074 A 
ATOM     11  C12 UNK     1      43.303   0.678  11.378  1.00  0.00     0.071 A 
ENDROOT
BRANCH   3  12
ATOM     12  C3  UNK     1      48.295   2.250   8.448  1.00  0.00    -0.028 A 
ATOM     13  C9  UNK     1      49.245   1.980   9.433  1.00  0.00     0.012 A 
ATOM     14  C13 UNK     1      50.494   2.600   9.385  1.00  0.00     0.037 A 
ATOM     15  C15 UNK     1      50.792   3.489   8.352  1.00  0.00     0.065 A 
ATOM     16  C14 UNK     1      49.841   3.757   7.367  1.00  0.00     0.037 A 
ATOM     17  C10 UNK     1      48.593   3.137   7.415  1.00  0.00     0.012 A 
BRANCH  15  18
ATOM     18  O5  UNK     1      52.010   4.094   8.305  1.00  0.00    -0.361 OA
ATOM     19  H12 UNK     1      52.465   3.952   9.153  1.00  0.00     0.217 HD
ENDBRANCH  15  18
ENDBRANCH   3  12
BRANCH   8  20
ATOM     20  O3  UNK     1      42.158   0.129   7.963  1.00  0.00    -0.360 OA
ATOM     21  H10 UNK     1      41.920   0.915   7.443  1.00  0.00     0.217 HD
ENDBRANCH   8  20
BRANCH  11  22
ATOM     22  O4  UNK     1      42.839   0.504  12.646  1.00  0.00    -0.361 OA
ATOM     23  H11 UNK     1      42.297  -0.304  12.675  1.00  0.00     0.217 HD
ENDBRANCH  11  22
TORSDOF 4
ENDMDL
MODEL 20
REMARK VINA RESULT:      -5.7     19.022     22.537
REMARK  4 active torsions:
REMARK  status: ('A' for Active; 'I' for Inactive)
REMARK    1  A    between atoms: O3_3  and  C7_12 
REMARK    2  A    between atoms: O4_4  and  C12_17 
REMARK    3  A    between atoms: O5_5  and  C15_20 
REMARK    4  A    between atoms: C1_6  and  C3_8 
ROOT
ATOM      1  O1  UNK     1      37.776  -5.151   5.445  1.00  0.00    -0.340 OA
ATOM      2  O2  UNK     1      37.375  -6.387   9.336  1.00  0.00    -0.292 OA
ATOM      3  C1  UNK     1      38.002  -6.522   5.806  1.00  0.00     0.169 C 
ATOM      4  C2  UNK     1      37.148  -6.920   7.008  1.00  0.00     0.121 C 
ATOM      5  C4  UNK     1      37.897  -4.647   7.828  1.00  0.00     0.076 A 
ATOM      6  C5  UNK     1      37.487  -6.024   8.172  1.00  0.00     0.167 C 
ATOM      7  C6  UNK     1      37.997  -4.282   6.482  1.00  0.00     0.089 A 
ATOM      8  C7  UNK     1      38.141  -3.709   8.834  1.00  0.00     0.085 A 
ATOM      9  C8  UNK     1      38.308  -2.965   6.142  1.00  0.00     0.074 A 
ATOM     10  C11 UNK     1      38.473  -2.398   8.487  1.00  0.00     0.074 A 
ATOM     11  C12 UNK     1      38.550  -2.025   7.145  1.00  0.00     0.071 A 
ENDROOT
BRANCH   3  12
ATOM     12  C3  UNK     1      37.693  -7.391   4.605  1.00  0.00    -0.028 A 
ATOM     13  C9  UNK     1      38.544  -8.444   4.271  1.00  0.00     0.012 A 
ATOM     14  C13 UNK     1      38.258  -9.245   3.164  1.00  0.00     0.037 A 
ATOM     15  C15 UNK     1      37.124  -8.992   2.393  1.00  0.00     0.065 A 
ATOM     16  C14 UNK     1      36.274  -7.937   2.729  1.00  0.00     0.037 A 
ATOM     17  C10 UNK     1      36.559  -7.138   3.835  1.00  0.00     0.012 A 
BRANCH  15  18
ATOM     18  O5  UNK     1      36.847  -9.773   1.314  1.00  0.00    -0.361 OA
ATOM     19  H12 UNK     1      35.907  -9.673   1.086  1.00  0.00     0.217 HD
ENDBRANCH  15  18
ENDBRANCH   3  12
BRANCH   8  20
ATOM     20  O3  UNK     1      38.063  -4.013  10.159  1.00  0.00    -0.360 OA
ATOM     21  H10 UNK     1      38.559  -3.355  10.674  1.00  0.00     0.217 HD
ENDBRANCH   8  20
BRANCH  11  22
ATOM     22  O4  UNK     1      38.866  -0.743   6.813  1.00  0.00    -0.361 OA
ATOM     23  H11 UNK     1      39.716  -0.511   7.226  1.00  0.00     0.217 HD
ENDBRANCH  11  22
TORSDOF 4
ENDMDL
