MODEL 1
REMARK VINA RESULT:      -6.0      0.000      0.000
REMARK  4 active torsions:
REMARK  status: ('A' for Active; 'I' for Inactive)
REMARK    1  A    between atoms: O3_3  and  C7_12 
REMARK    2  A    between atoms: O4_4  and  C12_17 
REMARK    3  A    between atoms: O5_5  and  C15_20 
REMARK    4  A    between atoms: C1_6  and  C3_8 
ROOT
ATOM      1  O1  UNK     1      39.061  22.147  11.137  1.00  0.00    -0.340 OA
ATOM      2  O2  UNK     1      37.885  19.581  14.113  1.00  0.00    -0.292 OA
ATOM      3  C1  UNK     1      37.676  22.022  11.493  1.00  0.00     0.169 C 
ATOM      4  C2  UNK     1      37.519  21.656  12.967  1.00  0.00     0.121 C 
ATOM      5  C4  UNK     1      39.429  20.096  12.404  1.00  0.00     0.076 A 
ATOM      6  C5  UNK     1      38.232  20.355  13.230  1.00  0.00     0.167 C 
ATOM      7  C6  UNK     1      39.788  21.020  11.418  1.00  0.00     0.089 A 
ATOM      8  C7  UNK     1      40.217  18.965  12.632  1.00  0.00     0.085 A 
ATOM      9  C8  UNK     1      40.958  20.829  10.682  1.00  0.00     0.074 A 
ATOM     10  C11 UNK     1      41.375  18.769  11.878  1.00  0.00     0.074 A 
ATOM     11  C12 UNK     1      41.748  19.701  10.909  1.00  0.00     0.071 A 
ENDROOT
BRANCH   3  12
ATOM     12  C3  UNK     1      36.980  23.330  11.178  1.00  0.00    -0.028 A 
ATOM     13  C9  UNK     1      37.380  24.502  11.818  1.00  0.00     0.012 A 
ATOM     14  C13 UNK     1      36.739  25.707  11.527  1.00  0.00     0.037 A 
ATOM     15  C15 UNK     1      35.700  25.739  10.598  1.00  0.00     0.065 A 
ATOM     16  C14 UNK     1      35.301  24.564   9.958  1.00  0.00     0.037 A 
ATOM     17  C10 UNK     1      35.942  23.360  10.248  1.00  0.00     0.012 A 
BRANCH  15  18
ATOM     18  O5  UNK     1      35.075  26.914  10.315  1.00  0.00    -0.361 OA
ATOM     19  H12 UNK     1      35.746  27.585  10.102  1.00  0.00     0.217 HD
ENDBRANCH  15  18
ENDBRANCH   3  12
BRANCH   8  20
ATOM     20  O3  UNK     1      39.910  18.033  13.576  1.00  0.00    -0.360 OA
ATOM     21  H10 UNK     1      39.710  17.186  13.144  1.00  0.00     0.217 HD
ENDBRANCH   8  20
BRANCH  11  22
ATOM     22  O4  UNK     1      42.883  19.508  10.182  1.00  0.00    -0.361 OA
ATOM     23  H11 UNK     1      43.294  20.372  10.004  1.00  0.00     0.217 HD
ENDBRANCH  11  22
TORSDOF 4
ENDMDL
MODEL 2
REMARK VINA RESULT:      -6.0      0.039      1.081
REMARK  4 active torsions:
REMARK  status: ('A' for Active; 'I' for Inactive)
REMARK    1  A    between atoms: O3_3  and  C7_12 
REMARK    2  A    between atoms: O4_4  and  C12_17 
REMARK    3  A    between atoms: O5_5  and  C15_20 
REMARK    4  A    between atoms: C1_6  and  C3_8 
ROOT
ATOM      1  O1  UNK     1      39.089  22.146  11.151  1.00  0.00    -0.340 OA
ATOM      2  O2  UNK     1      37.895  19.572  14.114  1.00  0.00    -0.292 OA
ATOM      3  C1  UNK     1      37.702  22.027  11.506  1.00  0.00     0.169 C 
ATOM      4  C2  UNK     1      37.543  21.655  12.978  1.00  0.00     0.121 C 
ATOM      5  C4  UNK     1      39.443  20.086  12.407  1.00  0.00     0.076 A 
ATOM      6  C5  UNK     1      38.247  20.348  13.235  1.00  0.00     0.167 C 
ATOM      7  C6  UNK     1      39.808  21.012  11.426  1.00  0.00     0.089 A 
ATOM      8  C7  UNK     1      40.223  18.949  12.630  1.00  0.00     0.085 A 
ATOM      9  C8  UNK     1      40.977  20.817  10.689  1.00  0.00     0.074 A 
ATOM     10  C11 UNK     1      41.380  18.748  11.876  1.00  0.00     0.074 A 
ATOM     11  C12 UNK     1      41.759  19.682  10.911  1.00  0.00     0.071 A 
ENDROOT
BRANCH   3  12
ATOM     12  C3  UNK     1      37.015  23.342  11.197  1.00  0.00    -0.028 A 
ATOM     13  C9  UNK     1      35.989  23.385  10.254  1.00  0.00     0.012 A 
ATOM     14  C13 UNK     1      35.355  24.596   9.970  1.00  0.00     0.037 A 
ATOM     15  C15 UNK     1      35.749  25.760  10.628  1.00  0.00     0.065 A 
ATOM     16  C14 UNK     1      36.777  25.715  11.572  1.00  0.00     0.037 A 
ATOM     17  C10 UNK     1      37.409  24.505  11.856  1.00  0.00     0.012 A 
BRANCH  15  18
ATOM     18  O5  UNK     1      35.132  26.941  10.351  1.00  0.00    -0.361 OA
ATOM     19  H12 UNK     1      35.790  27.656  10.382  1.00  0.00     0.217 HD
ENDBRANCH  15  18
ENDBRANCH   3  12
BRANCH   8  20
ATOM     20  O3  UNK     1      39.910  18.013  13.569  1.00  0.00    -0.360 OA
ATOM     21  H10 UNK     1      39.754  18.449  14.424  1.00  0.00     0.217 HD
ENDBRANCH   8  20
BRANCH  11  22
ATOM     22  O4  UNK     1      42.893  19.486  10.183  1.00  0.00    -0.361 OA
ATOM     23  H11 UNK     1      42.743  19.799   9.274  1.00  0.00     0.217 HD
ENDBRANCH  11  22
TORSDOF 4
ENDMDL
MODEL 3
REMARK VINA RESULT:      -5.9      2.179      6.856
REMARK  4 active torsions:
REMARK  status: ('A' for Active; 'I' for Inactive)
REMARK    1  A    between atoms: O3_3  and  C7_12 
REMARK    2  A    between atoms: O4_4  and  C12_17 
REMARK    3  A    between atoms: O5_5  and  C15_20 
REMARK    4  A    between atoms: C1_6  and  C3_8 
ROOT
ATOM      1  O1  UNK     1      36.605  23.351  10.604  1.00  0.00    -0.340 OA
ATOM      2  O2  UNK     1      34.536  22.947  14.123  1.00  0.00    -0.292 OA
ATOM      3  C1  UNK     1      37.260  22.877  11.790  1.00  0.00     0.169 C 
ATOM      4  C2  UNK     1      36.282  22.131  12.696  1.00  0.00     0.121 C 
ATOM      5  C4  UNK     1      34.789  24.072  12.063  1.00  0.00     0.076 A 
ATOM      6  C5  UNK     1      35.156  23.058  13.073  1.00  0.00     0.167 C 
ATOM      7  C6  UNK     1      35.521  24.146  10.875  1.00  0.00     0.089 A 
ATOM      8  C7  UNK     1      33.697  24.918  12.273  1.00  0.00     0.085 A 
ATOM      9  C8  UNK     1      35.139  25.046   9.880  1.00  0.00     0.074 A 
ATOM     10  C11 UNK     1      33.332  25.831  11.283  1.00  0.00     0.074 A 
ATOM     11  C12 UNK     1      34.048  25.892  10.086  1.00  0.00     0.071 A 
ENDROOT
BRANCH   3  12
ATOM     12  C3  UNK     1      38.411  21.983  11.376  1.00  0.00    -0.028 A 
ATOM     13  C9  UNK     1      39.352  21.578  12.322  1.00  0.00     0.012 A 
ATOM     14  C13 UNK     1      40.412  20.754  11.941  1.00  0.00     0.037 A 
ATOM     15  C15 UNK     1      40.530  20.337  10.615  1.00  0.00     0.065 A 
ATOM     16  C14 UNK     1      39.587  20.744   9.670  1.00  0.00     0.037 A 
ATOM     17  C10 UNK     1      38.527  21.566  10.051  1.00  0.00     0.012 A 
BRANCH  15  18
ATOM     18  O5  UNK     1      41.564  19.535  10.243  1.00  0.00    -0.361 OA
ATOM     19  H12 UNK     1      42.143  19.389  11.011  1.00  0.00     0.217 HD
ENDBRANCH  15  18
ENDBRANCH   3  12
BRANCH   8  20
ATOM     20  O3  UNK     1      32.953  24.891  13.414  1.00  0.00    -0.360 OA
ATOM     21  H10 UNK     1      32.018  24.752  13.189  1.00  0.00     0.217 HD
ENDBRANCH   8  20
BRANCH  11  22
ATOM     22  O4  UNK     1      33.683  26.778   9.120  1.00  0.00    -0.361 OA
ATOM     23  H11 UNK     1      34.345  27.491   9.079  1.00  0.00     0.217 HD
ENDBRANCH  11  22
TORSDOF 4
ENDMDL
MODEL 4
REMARK VINA RESULT:      -5.7      2.848      4.865
REMARK  4 active torsions:
REMARK  status: ('A' for Active; 'I' for Inactive)
REMARK    1  A    between atoms: O3_3  and  C7_12 
REMARK    2  A    between atoms: O4_4  and  C12_17 
REMARK    3  A    between atoms: O5_5  and  C15_20 
REMARK    4  A    between atoms: C1_6  and  C3_8 
ROOT
ATOM      1  O1  UNK     1      42.678  21.441  10.790  1.00  0.00    -0.340 OA
ATOM      2  O2  UNK     1      43.374  17.558  11.912  1.00  0.00    -0.292 OA
ATOM      3  C1  UNK     1      41.661  20.439  10.634  1.00  0.00     0.169 C 
ATOM      4  C2  UNK     1      41.796  19.352  11.698  1.00  0.00     0.121 C 
ATOM      5  C4  UNK     1      44.245  19.603  11.118  1.00  0.00     0.076 A 
ATOM      6  C5  UNK     1      43.158  18.717  11.584  1.00  0.00     0.167 C 
ATOM      7  C6  UNK     1      43.946  20.922  10.768  1.00  0.00     0.089 A 
ATOM      8  C7  UNK     1      45.563  19.140  11.068  1.00  0.00     0.085 A 
ATOM      9  C8  UNK     1      44.973  21.792  10.400  1.00  0.00     0.074 A 
ATOM     10  C11 UNK     1      46.583  20.009  10.679  1.00  0.00     0.074 A 
ATOM     11  C12 UNK     1      46.291  21.334  10.351  1.00  0.00     0.071 A 
ENDROOT
BRANCH   3  12
ATOM     12  C3  UNK     1      40.307  21.114  10.712  1.00  0.00    -0.028 A 
ATOM     13  C9  UNK     1      39.392  20.959   9.671  1.00  0.00     0.012 A 
ATOM     14  C13 UNK     1      38.145  21.580   9.743  1.00  0.00     0.037 A 
ATOM     15  C15 UNK     1      37.814  22.356  10.853  1.00  0.00     0.065 A 
ATOM     16  C14 UNK     1      38.732  22.511  11.894  1.00  0.00     0.037 A 
ATOM     17  C10 UNK     1      39.978  21.888  11.823  1.00  0.00     0.012 A 
BRANCH  15  18
ATOM     18  O5  UNK     1      36.598  22.962  10.923  1.00  0.00    -0.361 OA
ATOM     19  H12 UNK     1      36.689  23.885  10.629  1.00  0.00     0.217 HD
ENDBRANCH  15  18
ENDBRANCH   3  12
BRANCH   8  20
ATOM     20  O3  UNK     1      45.908  17.864  11.393  1.00  0.00    -0.360 OA
ATOM     21  H10 UNK     1      45.673  17.689  12.320  1.00  0.00     0.217 HD
ENDBRANCH   8  20
BRANCH  11  22
ATOM     22  O4  UNK     1      47.291  22.179   9.980  1.00  0.00    -0.361 OA
ATOM     23  H11 UNK     1      47.108  23.063  10.342  1.00  0.00     0.217 HD
ENDBRANCH  11  22
TORSDOF 4
ENDMDL
MODEL 5
REMARK VINA RESULT:      -5.7      2.852      4.762
REMARK  4 active torsions:
REMARK  status: ('A' for Active; 'I' for Inactive)
REMARK    1  A    between atoms: O3_3  and  C7_12 
REMARK    2  A    between atoms: O4_4  and  C12_17 
REMARK    3  A    between atoms: O5_5  and  C15_20 
REMARK    4  A    between atoms: C1_6  and  C3_8 
ROOT
ATOM      1  O1  UNK     1      42.685  21.443  10.800  1.00  0.00    -0.340 OA
ATOM      2  O2  UNK     1      43.383  17.555  11.907  1.00  0.00    -0.292 OA
ATOM      3  C1  UNK     1      41.669  20.441  10.640  1.00  0.00     0.169 C 
ATOM      4  C2  UNK     1      41.804  19.349  11.699  1.00  0.00     0.121 C 
ATOM      5  C4  UNK     1      44.254  19.604  11.121  1.00  0.00     0.076 A 
ATOM      6  C5  UNK     1      43.166  18.716  11.583  1.00  0.00     0.167 C 
ATOM      7  C6  UNK     1      43.954  20.925  10.776  1.00  0.00     0.089 A 
ATOM      8  C7  UNK     1      45.571  19.142  11.069  1.00  0.00     0.085 A 
ATOM      9  C8  UNK     1      44.981  21.797  10.412  1.00  0.00     0.074 A 
ATOM     10  C11 UNK     1      46.591  20.013  10.684  1.00  0.00     0.074 A 
ATOM     11  C12 UNK     1      46.298  21.339  10.361  1.00  0.00     0.071 A 
ENDROOT
BRANCH   3  12
ATOM     12  C3  UNK     1      40.315  21.115  10.719  1.00  0.00    -0.028 A 
ATOM     13  C9  UNK     1      39.986  21.886  11.834  1.00  0.00     0.012 A 
ATOM     14  C13 UNK     1      38.739  22.507  11.907  1.00  0.00     0.037 A 
ATOM     15  C15 UNK     1      37.822  22.357  10.867  1.00  0.00     0.065 A 
ATOM     16  C14 UNK     1      38.153  21.585   9.752  1.00  0.00     0.037 A 
ATOM     17  C10 UNK     1      39.400  20.965   9.679  1.00  0.00     0.012 A 
BRANCH  15  18
ATOM     18  O5  UNK     1      36.606  22.962  10.939  1.00  0.00    -0.361 OA
ATOM     19  H12 UNK     1      35.919  22.280  11.037  1.00  0.00     0.217 HD
ENDBRANCH  15  18
ENDBRANCH   3  12
BRANCH   8  20
ATOM     20  O3  UNK     1      45.917  17.864  11.389  1.00  0.00    -0.360 OA
ATOM     21  H10 UNK     1      45.126  17.373  11.667  1.00  0.00     0.217 HD
ENDBRANCH   8  20
BRANCH  11  22
ATOM     22  O4  UNK     1      47.298  22.186   9.993  1.00  0.00    -0.361 OA
ATOM     23  H11 UNK     1      47.071  23.087  10.282  1.00  0.00     0.217 HD
ENDBRANCH  11  22
TORSDOF 4
ENDMDL
MODEL 6
REMARK VINA RESULT:      -5.6      1.214      1.226
REMARK  4 active torsions:
REMARK  status: ('A' for Active; 'I' for Inactive)
REMARK    1  A    between atoms: O3_3  and  C7_12 
REMARK    2  A    between atoms: O4_4  and  C12_17 
REMARK    3  A    between atoms: O5_5  and  C15_20 
REMARK    4  A    between atoms: C1_6  and  C3_8 
ROOT
ATOM      1  O1  UNK     1      38.799  22.343  11.128  1.00  0.00    -0.340 OA
ATOM      2  O2  UNK     1      39.016  21.834  15.193  1.00  0.00    -0.292 OA
ATOM      3  C1  UNK     1      37.692  22.695  11.972  1.00  0.00     0.169 C 
ATOM      4  C2  UNK     1      38.172  23.126  13.356  1.00  0.00     0.121 C 
ATOM      5  C4  UNK     1      39.694  21.129  13.044  1.00  0.00     0.076 A 
ATOM      6  C5  UNK     1      38.950  21.996  13.981  1.00  0.00     0.167 C 
ATOM      7  C6  UNK     1      39.594  21.367  11.671  1.00  0.00     0.089 A 
ATOM      8  C7  UNK     1      40.522  20.112  13.526  1.00  0.00     0.085 A 
ATOM      9  C8  UNK     1      40.350  20.607  10.778  1.00  0.00     0.074 A 
ATOM     10  C11 UNK     1      41.260  19.341  12.628  1.00  0.00     0.074 A 
ATOM     11  C12 UNK     1      41.180  19.591  11.257  1.00  0.00     0.071 A 
ENDROOT
BRANCH   3  12
ATOM     12  C3  UNK     1      36.909  23.803  11.297  1.00  0.00    -0.028 A 
ATOM     13  C9  UNK     1      37.172  25.135  11.616  1.00  0.00     0.012 A 
ATOM     14  C13 UNK     1      36.451  26.154  10.993  1.00  0.00     0.037 A 
ATOM     15  C15 UNK     1      35.468  25.842  10.055  1.00  0.00     0.065 A 
ATOM     16  C14 UNK     1      35.206  24.508   9.737  1.00  0.00     0.037 A 
ATOM     17  C10 UNK     1      35.928  23.489  10.358  1.00  0.00     0.012 A 
BRANCH  15  18
ATOM     18  O5  UNK     1      34.764  26.836   9.448  1.00  0.00    -0.361 OA
ATOM     19  H12 UNK     1      34.814  26.716   8.485  1.00  0.00     0.217 HD
ENDBRANCH  15  18
ENDBRANCH   3  12
BRANCH   8  20
ATOM     20  O3  UNK     1      40.652  19.836  14.854  1.00  0.00    -0.360 OA
ATOM     21  H10 UNK     1      40.356  20.600  15.376  1.00  0.00     0.217 HD
ENDBRANCH   8  20
BRANCH  11  22
ATOM     22  O4  UNK     1      41.908  18.841  10.385  1.00  0.00    -0.361 OA
ATOM     23  H11 UNK     1      42.194  19.405   9.646  1.00  0.00     0.217 HD
ENDBRANCH  11  22
TORSDOF 4
ENDMDL
MODEL 7
REMARK VINA RESULT:      -5.6      4.043      4.831
REMARK  4 active torsions:
REMARK  status: ('A' for Active; 'I' for Inactive)
REMARK    1  A    between atoms: O3_3  and  C7_12 
REMARK    2  A    between atoms: O4_4  and  C12_17 
REMARK    3  A    between atoms: O5_5  and  C15_20 
REMARK    4  A    between atoms: C1_6  and  C3_8 
ROOT
ATOM      1  O1  UNK     1      43.375  21.268  11.885  1.00  0.00    -0.340 OA
ATOM      2  O2  UNK     1      39.676  19.670  12.656  1.00  0.00    -0.292 OA
ATOM      3  C1  UNK     1      42.181  21.940  11.455  1.00  0.00     0.169 C 
ATOM      4  C2  UNK     1      41.015  21.644  12.396  1.00  0.00     0.121 C 
ATOM      5  C4  UNK     1      41.973  19.307  12.251  1.00  0.00     0.076 A 
ATOM      6  C5  UNK     1      40.778  20.156  12.432  1.00  0.00     0.167 C 
ATOM      7  C6  UNK     1      43.209  19.913  12.009  1.00  0.00     0.089 A 
ATOM      8  C7  UNK     1      41.879  17.917  12.361  1.00  0.00     0.085 A 
ATOM      9  C8  UNK     1      44.360  19.130  11.913  1.00  0.00     0.074 A 
ATOM     10  C11 UNK     1      43.029  17.137  12.243  1.00  0.00     0.074 A 
ATOM     11  C12 UNK     1      44.268  17.741  12.025  1.00  0.00     0.071 A 
ENDROOT
BRANCH   3  12
ATOM     12  C3  UNK     1      42.465  23.427  11.390  1.00  0.00    -0.028 A 
ATOM     13  C9  UNK     1      41.834  24.295  12.279  1.00  0.00     0.012 A 
ATOM     14  C13 UNK     1      42.096  25.665  12.219  1.00  0.00     0.037 A 
ATOM     15  C15 UNK     1      42.988  26.163  11.270  1.00  0.00     0.065 A 
ATOM     16  C14 UNK     1      43.619  25.293  10.380  1.00  0.00     0.037 A 
ATOM     17  C10 UNK     1      43.357  23.924  10.441  1.00  0.00     0.012 A 
BRANCH  15  18
ATOM     18  O5  UNK     1      43.243  27.499  11.211  1.00  0.00    -0.361 OA
ATOM     19  H12 UNK     1      43.187  27.870  12.108  1.00  0.00     0.217 HD
ENDBRANCH  15  18
ENDBRANCH   3  12
BRANCH   8  20
ATOM     20  O3  UNK     1      40.700  17.275  12.591  1.00  0.00    -0.360 OA
ATOM     21  H10 UNK     1      40.180  17.772  13.245  1.00  0.00     0.217 HD
ENDBRANCH   8  20
BRANCH  11  22
ATOM     22  O4  UNK     1      45.389  16.976  11.918  1.00  0.00    -0.361 OA
ATOM     23  H11 UNK     1      45.899  17.046  12.744  1.00  0.00     0.217 HD
ENDBRANCH  11  22
TORSDOF 4
ENDMDL
MODEL 8
REMARK VINA RESULT:      -5.6      4.419      5.618
REMARK  4 active torsions:
REMARK  status: ('A' for Active; 'I' for Inactive)
REMARK    1  A    between atoms: O3_3  and  C7_12 
REMARK    2  A    between atoms: O4_4  and  C12_17 
REMARK    3  A    between atoms: O5_5  and  C15_20 
REMARK    4  A    between atoms: C1_6  and  C3_8 
ROOT
ATOM      1  O1  UNK     1      41.846  21.442  12.153  1.00  0.00    -0.340 OA
ATOM      2  O2  UNK     1      44.791  18.874  10.906  1.00  0.00    -0.292 OA
ATOM      3  C1  UNK     1      43.209  21.884  12.047  1.00  0.00     0.169 C 
ATOM      4  C2  UNK     1      43.949  21.119  10.952  1.00  0.00     0.121 C 
ATOM      5  C4  UNK     1      42.716  19.170  11.990  1.00  0.00     0.076 A 
ATOM      6  C5  UNK     1      43.914  19.647  11.270  1.00  0.00     0.167 C 
ATOM      7  C6  UNK     1      41.738  20.093  12.372  1.00  0.00     0.089 A 
ATOM      8  C7  UNK     1      42.540  17.808  12.250  1.00  0.00     0.085 A 
ATOM      9  C8  UNK     1      40.566  19.649  12.984  1.00  0.00     0.074 A 
ATOM     10  C11 UNK     1      41.375  17.372  12.882  1.00  0.00     0.074 A 
ATOM     11  C12 UNK     1      40.387  18.289  13.243  1.00  0.00     0.071 A 
ENDROOT
BRANCH   3  12
ATOM     12  C3  UNK     1      43.209  23.373  11.769  1.00  0.00    -0.028 A 
ATOM     13  C9  UNK     1      42.738  24.261  12.736  1.00  0.00     0.012 A 
ATOM     14  C13 UNK     1      42.739  25.633  12.479  1.00  0.00     0.037 A 
ATOM     15  C15 UNK     1      43.210  26.115  11.259  1.00  0.00     0.065 A 
ATOM     16  C14 UNK     1      43.681  25.224  10.292  1.00  0.00     0.037 A 
ATOM     17  C10 UNK     1      43.681  23.854  10.549  1.00  0.00     0.012 A 
BRANCH  15  18
ATOM     18  O5  UNK     1      43.210  27.452  11.009  1.00  0.00    -0.361 OA
ATOM     19  H12 UNK     1      42.578  27.640  10.294  1.00  0.00     0.217 HD
ENDBRANCH  15  18
ENDBRANCH   3  12
BRANCH   8  20
ATOM     20  O3  UNK     1      43.462  16.868  11.904  1.00  0.00    -0.360 OA
ATOM     21  H10 UNK     1      43.736  16.374  12.695  1.00  0.00     0.217 HD
ENDBRANCH   8  20
BRANCH  11  22
ATOM     22  O4  UNK     1      39.248  17.858  13.852  1.00  0.00    -0.361 OA
ATOM     23  H11 UNK     1      39.079  16.937  13.587  1.00  0.00     0.217 HD
ENDBRANCH  11  22
TORSDOF 4
ENDMDL
MODEL 9
REMARK VINA RESULT:      -5.6      3.783      7.802
REMARK  4 active torsions:
REMARK  status: ('A' for Active; 'I' for Inactive)
REMARK    1  A    between atoms: O3_3  and  C7_12 
REMARK    2  A    between atoms: O4_4  and  C12_17 
REMARK    3  A    between atoms: O5_5  and  C15_20 
REMARK    4  A    between atoms: C1_6  and  C3_8 
ROOT
ATOM      1  O1  UNK     1      41.517  22.942  12.280  1.00  0.00    -0.340 OA
ATOM      2  O2  UNK     1      44.701  25.216  11.046  1.00  0.00    -0.292 OA
ATOM      3  C1  UNK     1      42.456  22.432  11.321  1.00  0.00     0.169 C 
ATOM      4  C2  UNK     1      43.844  23.030  11.539  1.00  0.00     0.121 C 
ATOM      5  C4  UNK     1      42.481  25.140  11.846  1.00  0.00     0.076 A 
ATOM      6  C5  UNK     1      43.757  24.530  11.418  1.00  0.00     0.167 C 
ATOM      7  C6  UNK     1      41.440  24.311  12.274  1.00  0.00     0.089 A 
ATOM      8  C7  UNK     1      42.331  26.529  11.863  1.00  0.00     0.085 A 
ATOM      9  C8  UNK     1      40.257  24.874  12.754  1.00  0.00     0.074 A 
ATOM     10  C11 UNK     1      41.137  27.086  12.325  1.00  0.00     0.074 A 
ATOM     11  C12 UNK     1      40.105  26.262  12.774  1.00  0.00     0.071 A 
ENDROOT
BRANCH   3  12
ATOM     12  C3  UNK     1      42.488  20.922  11.440  1.00  0.00    -0.028 A 
ATOM     13  C9  UNK     1      43.696  20.238  11.299  1.00  0.00     0.012 A 
ATOM     14  C13 UNK     1      43.725  18.847  11.409  1.00  0.00     0.037 A 
ATOM     15  C15 UNK     1      42.549  18.142  11.659  1.00  0.00     0.065 A 
ATOM     16  C14 UNK     1      41.341  18.827  11.799  1.00  0.00     0.037 A 
ATOM     17  C10 UNK     1      41.312  20.218  11.690  1.00  0.00     0.012 A 
BRANCH  15  18
ATOM     18  O5  UNK     1      42.578  16.786  11.765  1.00  0.00    -0.361 OA
ATOM     19  H12 UNK     1      42.096  16.400  11.014  1.00  0.00     0.217 HD
ENDBRANCH  15  18
ENDBRANCH   3  12
BRANCH   8  20
ATOM     20  O3  UNK     1      43.310  27.381  11.453  1.00  0.00    -0.360 OA
ATOM     21  H10 UNK     1      43.944  26.903  10.893  1.00  0.00     0.217 HD
ENDBRANCH   8  20
BRANCH  11  22
ATOM     22  O4  UNK     1      38.946  26.811  13.231  1.00  0.00    -0.361 OA
ATOM     23  H11 UNK     1      38.204  26.231  12.987  1.00  0.00     0.217 HD
ENDBRANCH  11  22
TORSDOF 4
ENDMDL
MODEL 10
REMARK VINA RESULT:      -5.5      1.772      3.794
REMARK  4 active torsions:
REMARK  status: ('A' for Active; 'I' for Inactive)
REMARK    1  A    between atoms: O3_3  and  C7_12 
REMARK    2  A    between atoms: O4_4  and  C12_17 
REMARK    3  A    between atoms: O5_5  and  C15_20 
REMARK    4  A    between atoms: C1_6  and  C3_8 
ROOT
ATOM      1  O1  UNK     1      39.836  19.755  12.095  1.00  0.00    -0.340 OA
ATOM      2  O2  UNK     1      43.526  20.415  10.430  1.00  0.00    -0.292 OA
ATOM      3  C1  UNK     1      40.291  21.090  11.826  1.00  0.00     0.169 C 
ATOM      4  C2  UNK     1      41.240  21.115  10.630  1.00  0.00     0.121 C 
ATOM      5  C4  UNK     1      42.148  19.050  11.775  1.00  0.00     0.076 A 
ATOM      6  C5  UNK     1      42.420  20.223  10.919  1.00  0.00     0.167 C 
ATOM      7  C6  UNK     1      40.864  18.871  12.298  1.00  0.00     0.089 A 
ATOM      8  C7  UNK     1      43.149  18.109  12.026  1.00  0.00     0.085 A 
ATOM      9  C8  UNK     1      40.571  17.729  13.044  1.00  0.00     0.074 A 
ATOM     10  C11 UNK     1      42.857  16.979  12.792  1.00  0.00     0.074 A 
ATOM     11  C12 UNK     1      41.569  16.786  13.295  1.00  0.00     0.071 A 
ENDROOT
BRANCH   3  12
ATOM     12  C3  UNK     1      39.081  21.968  11.582  1.00  0.00    -0.028 A 
ATOM     13  C9  UNK     1      38.176  21.641  10.573  1.00  0.00     0.012 A 
ATOM     14  C13 UNK     1      37.061  22.450  10.349  1.00  0.00     0.037 A 
ATOM     15  C15 UNK     1      36.854  23.585  11.132  1.00  0.00     0.065 A 
ATOM     16  C14 UNK     1      37.761  23.912  12.141  1.00  0.00     0.037 A 
ATOM     17  C10 UNK     1      38.874  23.102  12.366  1.00  0.00     0.012 A 
BRANCH  15  18
ATOM     18  O5  UNK     1      35.767  24.374  10.912  1.00  0.00    -0.361 OA
ATOM     19  H12 UNK     1      35.301  24.511  11.755  1.00  0.00     0.217 HD
ENDBRANCH  15  18
ENDBRANCH   3  12
BRANCH   8  20
ATOM     20  O3  UNK     1      44.418  18.237  11.547  1.00  0.00    -0.360 OA
ATOM     21  H10 UNK     1      44.637  17.467  10.997  1.00  0.00     0.217 HD
ENDBRANCH   8  20
BRANCH  11  22
ATOM     22  O4  UNK     1      41.287  15.678  14.034  1.00  0.00    -0.361 OA
ATOM     23  H11 UNK     1      42.036  15.496  14.628  1.00  0.00     0.217 HD
ENDBRANCH  11  22
TORSDOF 4
ENDMDL
MODEL 11
REMARK VINA RESULT:      -5.5      4.779      7.995
REMARK  4 active torsions:
REMARK  status: ('A' for Active; 'I' for Inactive)
REMARK    1  A    between atoms: O3_3  and  C7_12 
REMARK    2  A    between atoms: O4_4  and  C12_17 
REMARK    3  A    between atoms: O5_5  and  C15_20 
REMARK    4  A    between atoms: C1_6  and  C3_8 
ROOT
ATOM      1  O1  UNK     1      42.740  22.925  12.704  1.00  0.00    -0.340 OA
ATOM      2  O2  UNK     1      43.690  24.991   9.289  1.00  0.00    -0.292 OA
ATOM      3  C1  UNK     1      42.473  22.365  11.409  1.00  0.00     0.169 C 
ATOM      4  C2  UNK     1      43.483  22.863  10.377  1.00  0.00     0.121 C 
ATOM      5  C4  UNK     1      43.057  25.057  11.563  1.00  0.00     0.076 A 
ATOM      6  C5  UNK     1      43.413  24.366  10.306  1.00  0.00     0.167 C 
ATOM      7  C6  UNK     1      42.762  24.296  12.697  1.00  0.00     0.089 A 
ATOM      8  C7  UNK     1      43.057  26.452  11.629  1.00  0.00     0.085 A 
ATOM      9  C8  UNK     1      42.500  24.933  13.911  1.00  0.00     0.074 A 
ATOM     10  C11 UNK     1      42.773  27.084  12.840  1.00  0.00     0.074 A 
ATOM     11  C12 UNK     1      42.501  26.327  13.980  1.00  0.00     0.071 A 
ENDROOT
BRANCH   3  12
ATOM     12  C3  UNK     1      42.510  20.855  11.524  1.00  0.00    -0.028 A 
ATOM     13  C9  UNK     1      41.335  20.148  11.779  1.00  0.00     0.012 A 
ATOM     14  C13 UNK     1      41.369  18.757  11.884  1.00  0.00     0.037 A 
ATOM     15  C15 UNK     1      42.576  18.075  11.736  1.00  0.00     0.065 A 
ATOM     16  C14 UNK     1      43.751  18.784  11.481  1.00  0.00     0.037 A 
ATOM     17  C10 UNK     1      43.717  20.174  11.375  1.00  0.00     0.012 A 
BRANCH  15  18
ATOM     18  O5  UNK     1      42.609  16.718  11.839  1.00  0.00    -0.361 OA
ATOM     19  H12 UNK     1      42.195  16.331  11.049  1.00  0.00     0.217 HD
ENDBRANCH  15  18
ENDBRANCH   3  12
BRANCH   8  20
ATOM     20  O3  UNK     1      43.333  27.240  10.553  1.00  0.00    -0.360 OA
ATOM     21  H10 UNK     1      42.840  26.919   9.779  1.00  0.00     0.217 HD
ENDBRANCH   8  20
BRANCH  11  22
ATOM     22  O4  UNK     1      42.233  26.949  15.161  1.00  0.00    -0.361 OA
ATOM     23  H11 UNK     1      41.389  26.612  15.511  1.00  0.00     0.217 HD
ENDBRANCH  11  22
TORSDOF 4
ENDMDL
MODEL 12
REMARK VINA RESULT:      -5.5      3.433      4.908
REMARK  4 active torsions:
REMARK  status: ('A' for Active; 'I' for Inactive)
REMARK    1  A    between atoms: O3_3  and  C7_12 
REMARK    2  A    between atoms: O4_4  and  C12_17 
REMARK    3  A    between atoms: O5_5  and  C15_20 
REMARK    4  A    between atoms: C1_6  and  C3_8 
ROOT
ATOM      1  O1  UNK     1      41.368  23.405  11.454  1.00  0.00    -0.340 OA
ATOM      2  O2  UNK     1      45.412  24.089  11.430  1.00  0.00    -0.292 OA
ATOM      3  C1  UNK     1      41.938  24.460  12.244  1.00  0.00     0.169 C 
ATOM      4  C2  UNK     1      43.204  25.011  11.590  1.00  0.00     0.121 C 
ATOM      5  C4  UNK     1      43.638  22.548  11.210  1.00  0.00     0.076 A 
ATOM      6  C5  UNK     1      44.203  23.895  11.434  1.00  0.00     0.167 C 
ATOM      7  C6  UNK     1      42.249  22.384  11.211  1.00  0.00     0.089 A 
ATOM      8  C7  UNK     1      44.477  21.460  10.958  1.00  0.00     0.085 A 
ATOM      9  C8  UNK     1      41.698  21.135  10.925  1.00  0.00     0.074 A 
ATOM     10  C11 UNK     1      43.920  20.208  10.693  1.00  0.00     0.074 A 
ATOM     11  C12 UNK     1      42.534  20.046  10.671  1.00  0.00     0.071 A 
ENDROOT
BRANCH   3  12
ATOM     12  C3  UNK     1      40.896  25.546  12.417  1.00  0.00    -0.028 A 
ATOM     13  C9  UNK     1      41.282  26.886  12.421  1.00  0.00     0.012 A 
ATOM     14  C13 UNK     1      40.321  27.886  12.580  1.00  0.00     0.037 A 
ATOM     15  C15 UNK     1      38.978  27.545  12.736  1.00  0.00     0.065 A 
ATOM     16  C14 UNK     1      38.594  26.203  12.732  1.00  0.00     0.037 A 
ATOM     17  C10 UNK     1      39.554  25.204  12.572  1.00  0.00     0.012 A 
BRANCH  15  18
ATOM     18  O5  UNK     1      38.042  28.520  12.892  1.00  0.00    -0.361 OA
ATOM     19  H12 UNK     1      37.592  28.392  13.745  1.00  0.00     0.217 HD
ENDBRANCH  15  18
ENDBRANCH   3  12
BRANCH   8  20
ATOM     20  O3  UNK     1      45.835  21.564  10.950  1.00  0.00    -0.360 OA
ATOM     21  H10 UNK     1      46.209  20.984  11.634  1.00  0.00     0.217 HD
ENDBRANCH   8  20
BRANCH  11  22
ATOM     22  O4  UNK     1      41.997  18.824  10.404  1.00  0.00    -0.361 OA
ATOM     23  H11 UNK     1      41.982  18.300  11.224  1.00  0.00     0.217 HD
ENDBRANCH  11  22
TORSDOF 4
ENDMDL
MODEL 13
REMARK VINA RESULT:      -5.5      3.855      4.360
REMARK  4 active torsions:
REMARK  status: ('A' for Active; 'I' for Inactive)
REMARK    1  A    between atoms: O3_3  and  C7_12 
REMARK    2  A    between atoms: O4_4  and  C12_17 
REMARK    3  A    between atoms: O5_5  and  C15_20 
REMARK    4  A    between atoms: C1_6  and  C3_8 
ROOT
ATOM      1  O1  UNK     1      42.207  21.228  12.189  1.00  0.00    -0.340 OA
ATOM      2  O2  UNK     1      38.821  20.653  14.432  1.00  0.00    -0.292 OA
ATOM      3  C1  UNK     1      41.155  22.206  12.193  1.00  0.00     0.169 C 
ATOM      4  C2  UNK     1      40.411  22.205  13.527  1.00  0.00     0.121 C 
ATOM      5  C4  UNK     1      40.605  19.702  13.213  1.00  0.00     0.076 A 
ATOM      6  C5  UNK     1      39.834  20.834  13.767  1.00  0.00     0.167 C 
ATOM      7  C6  UNK     1      41.761  19.964  12.472  1.00  0.00     0.089 A 
ATOM      8  C7  UNK     1      40.208  18.385  13.460  1.00  0.00     0.085 A 
ATOM      9  C8  UNK     1      42.542  18.905  12.008  1.00  0.00     0.074 A 
ATOM     10  C11 UNK     1      40.981  17.330  12.974  1.00  0.00     0.074 A 
ATOM     11  C12 UNK     1      42.149  17.588  12.255  1.00  0.00     0.071 A 
ENDROOT
BRANCH   3  12
ATOM     12  C3  UNK     1      41.762  23.564  11.908  1.00  0.00    -0.028 A 
ATOM     13  C9  UNK     1      41.289  24.692  12.578  1.00  0.00     0.012 A 
ATOM     14  C13 UNK     1      41.849  25.943  12.315  1.00  0.00     0.037 A 
ATOM     15  C15 UNK     1      42.879  26.065  11.384  1.00  0.00     0.065 A 
ATOM     16  C14 UNK     1      43.351  24.935  10.714  1.00  0.00     0.037 A 
ATOM     17  C10 UNK     1      42.793  23.685  10.978  1.00  0.00     0.012 A 
BRANCH  15  18
ATOM     18  O5  UNK     1      43.425  27.285  11.127  1.00  0.00    -0.361 OA
ATOM     19  H12 UNK     1      43.704  27.688  11.967  1.00  0.00     0.217 HD
ENDBRANCH  15  18
ENDBRANCH   3  12
BRANCH   8  20
ATOM     20  O3  UNK     1      39.088  18.075  14.170  1.00  0.00    -0.360 OA
ATOM     21  H10 UNK     1      39.125  17.144  14.445  1.00  0.00     0.217 HD
ENDBRANCH   8  20
BRANCH  11  22
ATOM     22  O4  UNK     1      42.904  16.555  11.790  1.00  0.00    -0.361 OA
ATOM     23  H11 UNK     1      42.376  16.038  11.157  1.00  0.00     0.217 HD
ENDBRANCH  11  22
TORSDOF 4
ENDMDL
MODEL 14
REMARK VINA RESULT:      -5.4      3.069      7.715
REMARK  4 active torsions:
REMARK  status: ('A' for Active; 'I' for Inactive)
REMARK    1  A    between atoms: O3_3  and  C7_12 
REMARK    2  A    between atoms: O4_4  and  C12_17 
REMARK    3  A    between atoms: O5_5  and  C15_20 
REMARK    4  A    between atoms: C1_6  and  C3_8 
ROOT
ATOM      1  O1  UNK     1      42.586  20.071  10.417  1.00  0.00    -0.340 OA
ATOM      2  O2  UNK     1      41.409  18.056  13.791  1.00  0.00    -0.292 OA
ATOM      3  C1  UNK     1      43.527  19.775  11.461  1.00  0.00     0.169 C 
ATOM      4  C2  UNK     1      43.146  18.491  12.194  1.00  0.00     0.121 C 
ATOM      5  C4  UNK     1      40.839  19.514  12.024  1.00  0.00     0.076 A 
ATOM      6  C5  UNK     1      41.767  18.650  12.782  1.00  0.00     0.167 C 
ATOM      7  C6  UNK     1      41.296  20.159  10.871  1.00  0.00     0.089 A 
ATOM      8  C7  UNK     1      39.509  19.653  12.431  1.00  0.00     0.085 A 
ATOM      9  C8  UNK     1      40.411  20.917  10.103  1.00  0.00     0.074 A 
ATOM     10  C11 UNK     1      38.634  20.429  11.670  1.00  0.00     0.074 A 
ATOM     11  C12 UNK     1      39.082  21.055  10.506  1.00  0.00     0.071 A 
ENDROOT
BRANCH   3  12
ATOM     12  C3  UNK     1      44.906  19.663  10.845  1.00  0.00    -0.028 A 
ATOM     13  C9  UNK     1      45.255  20.478   9.768  1.00  0.00     0.012 A 
ATOM     14  C13 UNK     1      46.526  20.375   9.201  1.00  0.00     0.037 A 
ATOM     15  C15 UNK     1      47.445  19.459   9.710  1.00  0.00     0.065 A 
ATOM     16  C14 UNK     1      47.095  18.644  10.787  1.00  0.00     0.037 A 
ATOM     17  C10 UNK     1      45.825  18.747  11.355  1.00  0.00     0.012 A 
BRANCH  15  18
ATOM     18  O5  UNK     1      48.685  19.358   9.156  1.00  0.00    -0.361 OA
ATOM     19  H12 UNK     1      48.619  18.859   8.324  1.00  0.00     0.217 HD
ENDBRANCH  15  18
ENDBRANCH   3  12
BRANCH   8  20
ATOM     20  O3  UNK     1      39.014  19.051  13.547  1.00  0.00    -0.360 OA
ATOM     21  H10 UNK     1      39.044  18.086  13.438  1.00  0.00     0.217 HD
ENDBRANCH   8  20
BRANCH  11  22
ATOM     22  O4  UNK     1      38.221  21.805   9.763  1.00  0.00    -0.361 OA
ATOM     23  H11 UNK     1      37.404  21.945  10.273  1.00  0.00     0.217 HD
ENDBRANCH  11  22
TORSDOF 4
ENDMDL
MODEL 15
REMARK VINA RESULT:      -5.4      3.362      4.984
REMARK  4 active torsions:
REMARK  status: ('A' for Active; 'I' for Inactive)
REMARK    1  A    between atoms: O3_3  and  C7_12 
REMARK    2  A    between atoms: O4_4  and  C12_17 
REMARK    3  A    between atoms: O5_5  and  C15_20 
REMARK    4  A    between atoms: C1_6  and  C3_8 
ROOT
ATOM      1  O1  UNK     1      41.310  22.615  12.029  1.00  0.00    -0.340 OA
ATOM      2  O2  UNK     1      44.900  21.807  10.215  1.00  0.00    -0.292 OA
ATOM      3  C1  UNK     1      42.396  23.552  12.100  1.00  0.00     0.169 C 
ATOM      4  C2  UNK     1      43.283  23.458  10.861  1.00  0.00     0.121 C 
ATOM      5  C4  UNK     1      42.953  20.982  11.264  1.00  0.00     0.076 A 
ATOM      6  C5  UNK     1      43.827  22.057  10.750  1.00  0.00     0.167 C 
ATOM      7  C6  UNK     1      41.732  21.322  11.855  1.00  0.00     0.089 A 
ATOM      8  C7  UNK     1      43.320  19.642  11.124  1.00  0.00     0.085 A 
ATOM      9  C8  UNK     1      40.861  20.316  12.276  1.00  0.00     0.074 A 
ATOM     10  C11 UNK     1      42.454  18.641  11.565  1.00  0.00     0.074 A 
ATOM     11  C12 UNK     1      41.225  18.976  12.135  1.00  0.00     0.071 A 
ENDROOT
BRANCH   3  12
ATOM     12  C3  UNK     1      41.817  24.944  12.252  1.00  0.00    -0.028 A 
ATOM     13  C9  UNK     1      40.469  25.106  12.573  1.00  0.00     0.012 A 
ATOM     14  C13 UNK     1      39.937  26.388  12.714  1.00  0.00     0.037 A 
ATOM     15  C15 UNK     1      40.751  27.505  12.533  1.00  0.00     0.065 A 
ATOM     16  C14 UNK     1      42.099  27.342  12.212  1.00  0.00     0.037 A 
ATOM     17  C10 UNK     1      42.632  26.060  12.073  1.00  0.00     0.012 A 
BRANCH  15  18
ATOM     18  O5  UNK     1      40.231  28.756  12.670  1.00  0.00    -0.361 OA
ATOM     19  H12 UNK     1      39.888  29.050  11.810  1.00  0.00     0.217 HD
ENDBRANCH  15  18
ENDBRANCH   3  12
BRANCH   8  20
ATOM     20  O3  UNK     1      44.498  19.256  10.560  1.00  0.00    -0.360 OA
ATOM     21  H10 UNK     1      44.587  19.662   9.682  1.00  0.00     0.217 HD
ENDBRANCH   8  20
BRANCH  11  22
ATOM     22  O4  UNK     1      40.381  17.995  12.557  1.00  0.00    -0.361 OA
ATOM     23  H11 UNK     1      39.519  18.110  12.119  1.00  0.00     0.217 HD
ENDBRANCH  11  22
TORSDOF 4
ENDMDL
MODEL 16
REMARK VINA RESULT:      -5.4      2.070      3.760
REMARK  4 active torsions:
REMARK  status: ('A' for Active; 'I' for Inactive)
REMARK    1  A    between atoms: O3_3  and  C7_12 
REMARK    2  A    between atoms: O4_4  and  C12_17 
REMARK    3  A    between atoms: O5_5  and  C15_20 
REMARK    4  A    between atoms: C1_6  and  C3_8 
ROOT
ATOM      1  O1  UNK     1      40.378  20.470  11.440  1.00  0.00    -0.340 OA
ATOM      2  O2  UNK     1      43.916  22.479  10.925  1.00  0.00    -0.292 OA
ATOM      3  C1  UNK     1      40.477  21.870  11.741  1.00  0.00     0.169 C 
ATOM      4  C2  UNK     1      41.519  22.549  10.856  1.00  0.00     0.121 C 
ATOM      5  C4  UNK     1      42.816  20.447  11.403  1.00  0.00     0.076 A 
ATOM      6  C5  UNK     1      42.855  21.886  11.072  1.00  0.00     0.167 C 
ATOM      7  C6  UNK     1      41.577  19.815  11.547  1.00  0.00     0.089 A 
ATOM      8  C7  UNK     1      44.000  19.716  11.530  1.00  0.00     0.085 A 
ATOM      9  C8  UNK     1      41.522  18.441  11.784  1.00  0.00     0.074 A 
ATOM     10  C11 UNK     1      43.939  18.346  11.788  1.00  0.00     0.074 A 
ATOM     11  C12 UNK     1      42.704  17.708  11.909  1.00  0.00     0.071 A 
ENDROOT
BRANCH   3  12
ATOM     12  C3  UNK     1      39.110  22.498  11.555  1.00  0.00    -0.028 A 
ATOM     13  C9  UNK     1      38.223  21.967  10.620  1.00  0.00     0.012 A 
ATOM     14  C13 UNK     1      36.964  22.545  10.449  1.00  0.00     0.037 A 
ATOM     15  C15 UNK     1      36.595  23.652  11.212  1.00  0.00     0.065 A 
ATOM     16  C14 UNK     1      37.485  24.182  12.148  1.00  0.00     0.037 A 
ATOM     17  C10 UNK     1      38.742  23.603  12.320  1.00  0.00     0.012 A 
BRANCH  15  18
ATOM     18  O5  UNK     1      35.368  24.216  11.045  1.00  0.00    -0.361 OA
ATOM     19  H12 UNK     1      34.816  23.617  10.514  1.00  0.00     0.217 HD
ENDBRANCH  15  18
ENDBRANCH   3  12
BRANCH   8  20
ATOM     20  O3  UNK     1      45.232  20.283  11.404  1.00  0.00    -0.360 OA
ATOM     21  H10 UNK     1      45.859  19.831  11.992  1.00  0.00     0.217 HD
ENDBRANCH   8  20
BRANCH  11  22
ATOM     22  O4  UNK     1      42.651  16.369  12.152  1.00  0.00    -0.361 OA
ATOM     23  H11 UNK     1      41.872  16.180  12.703  1.00  0.00     0.217 HD
ENDBRANCH  11  22
TORSDOF 4
ENDMDL
MODEL 17
REMARK VINA RESULT:      -5.4      1.647      2.901
REMARK  4 active torsions:
REMARK  status: ('A' for Active; 'I' for Inactive)
REMARK    1  A    between atoms: O3_3  and  C7_12 
REMARK    2  A    between atoms: O4_4  and  C12_17 
REMARK    3  A    between atoms: O5_5  and  C15_20 
REMARK    4  A    between atoms: C1_6  and  C3_8 
ROOT
ATOM      1  O1  UNK     1      37.409  21.428  12.415  1.00  0.00    -0.340 OA
ATOM      2  O2  UNK     1      39.821  21.098   9.114  1.00  0.00    -0.292 OA
ATOM      3  C1  UNK     1      37.507  22.502  11.468  1.00  0.00     0.169 C 
ATOM      4  C2  UNK     1      37.800  21.972  10.066  1.00  0.00     0.121 C 
ATOM      5  C4  UNK     1      39.401  20.499  11.358  1.00  0.00     0.076 A 
ATOM      6  C5  UNK     1      39.093  21.198  10.093  1.00  0.00     0.167 C 
ATOM      7  C6  UNK     1      38.528  20.636  12.442  1.00  0.00     0.089 A 
ATOM      8  C7  UNK     1      40.526  19.677  11.458  1.00  0.00     0.085 A 
ATOM      9  C8  UNK     1      38.764  19.922  13.617  1.00  0.00     0.074 A 
ATOM     10  C11 UNK     1      40.768  18.981  12.643  1.00  0.00     0.074 A 
ATOM     11  C12 UNK     1      39.886  19.099  13.718  1.00  0.00     0.071 A 
ENDROOT
BRANCH   3  12
ATOM     12  C3  UNK     1      36.210  23.284  11.495  1.00  0.00    -0.028 A 
ATOM     13  C9  UNK     1      35.386  23.226  12.619  1.00  0.00     0.012 A 
ATOM     14  C13 UNK     1      34.191  23.947  12.644  1.00  0.00     0.037 A 
ATOM     15  C15 UNK     1      33.821  24.723  11.547  1.00  0.00     0.065 A 
ATOM     16  C14 UNK     1      34.646  24.780  10.422  1.00  0.00     0.037 A 
ATOM     17  C10 UNK     1      35.841  24.060  10.398  1.00  0.00     0.012 A 
BRANCH  15  18
ATOM     18  O5  UNK     1      32.656  25.425  11.571  1.00  0.00    -0.361 OA
ATOM     19  H12 UNK     1      32.831  26.315  11.922  1.00  0.00     0.217 HD
ENDBRANCH  15  18
ENDBRANCH   3  12
BRANCH   8  20
ATOM     20  O3  UNK     1      41.410  19.512  10.435  1.00  0.00    -0.360 OA
ATOM     21  H10 UNK     1      41.936  20.321  10.326  1.00  0.00     0.217 HD
ENDBRANCH   8  20
BRANCH  11  22
ATOM     22  O4  UNK     1      40.123  18.411  14.870  1.00  0.00    -0.361 OA
ATOM     23  H11 UNK     1      39.748  17.517  14.786  1.00  0.00     0.217 HD
ENDBRANCH  11  22
TORSDOF 4
ENDMDL
MODEL 18
REMARK VINA RESULT:      -5.4      2.049      2.704
REMARK  4 active torsions:
REMARK  status: ('A' for Active; 'I' for Inactive)
REMARK    1  A    between atoms: O3_3  and  C7_12 
REMARK    2  A    between atoms: O4_4  and  C12_17 
REMARK    3  A    between atoms: O5_5  and  C15_20 
REMARK    4  A    between atoms: C1_6  and  C3_8 
ROOT
ATOM      1  O1  UNK     1      38.386  22.617  11.673  1.00  0.00    -0.340 OA
ATOM      2  O2  UNK     1      41.037  24.382  14.258  1.00  0.00    -0.292 OA
ATOM      3  C1  UNK     1      38.049  23.839  12.347  1.00  0.00     0.169 C 
ATOM      4  C2  UNK     1      39.299  24.671  12.630  1.00  0.00     0.121 C 
ATOM      5  C4  UNK     1      40.216  22.402  13.269  1.00  0.00     0.076 A 
ATOM      6  C5  UNK     1      40.245  23.864  13.480  1.00  0.00     0.167 C 
ATOM      7  C6  UNK     1      39.302  21.863  12.359  1.00  0.00     0.089 A 
ATOM      8  C7  UNK     1      41.120  21.571  13.937  1.00  0.00     0.085 A 
ATOM      9  C8  UNK     1      39.314  20.494  12.092  1.00  0.00     0.074 A 
ATOM     10  C11 UNK     1      41.114  20.200  13.681  1.00  0.00     0.074 A 
ATOM     11  C12 UNK     1      40.217  19.662  12.756  1.00  0.00     0.071 A 
ENDROOT
BRANCH   3  12
ATOM     12  C3  UNK     1      37.066  24.606  11.487  1.00  0.00    -0.028 A 
ATOM     13  C9  UNK     1      37.139  25.996  11.418  1.00  0.00     0.012 A 
ATOM     14  C13 UNK     1      36.233  26.703  10.625  1.00  0.00     0.037 A 
ATOM     15  C15 UNK     1      35.256  26.018   9.904  1.00  0.00     0.065 A 
ATOM     16  C14 UNK     1      35.184  24.626   9.974  1.00  0.00     0.037 A 
ATOM     17  C10 UNK     1      36.090  23.920  10.765  1.00  0.00     0.012 A 
BRANCH  15  18
ATOM     18  O5  UNK     1      34.373  26.707   9.131  1.00  0.00    -0.361 OA
ATOM     19  H12 UNK     1      33.953  26.091   8.506  1.00  0.00     0.217 HD
ENDBRANCH  15  18
ENDBRANCH   3  12
BRANCH   8  20
ATOM     20  O3  UNK     1      42.028  22.043  14.836  1.00  0.00    -0.360 OA
ATOM     21  H10 UNK     1      42.399  22.882  14.514  1.00  0.00     0.217 HD
ENDBRANCH   8  20
BRANCH  11  22
ATOM     22  O4  UNK     1      40.221  18.324  12.504  1.00  0.00    -0.361 OA
ATOM     23  H11 UNK     1      39.811  18.165  11.636  1.00  0.00     0.217 HD
ENDBRANCH  11  22
TORSDOF 4
ENDMDL
MODEL 19
REMARK VINA RESULT:      -5.3      4.619      8.800
REMARK  4 active torsions:
REMARK  status: ('A' for Active; 'I' for Inactive)
REMARK    1  A    between atoms: O3_3  and  C7_12 
REMARK    2  A    between atoms: O4_4  and  C12_17 
REMARK    3  A    between atoms: O5_5  and  C15_20 
REMARK    4  A    between atoms: C1_6  and  C3_8 
ROOT
ATOM      1  O1  UNK     1      44.814  22.835  10.417  1.00  0.00    -0.340 OA
ATOM      2  O2  UNK     1      41.288  21.282  11.823  1.00  0.00    -0.292 OA
ATOM      3  C1  UNK     1      44.765  21.512  10.971  1.00  0.00     0.169 C 
ATOM      4  C2  UNK     1      43.395  20.875  10.750  1.00  0.00     0.121 C 
ATOM      5  C4  UNK     1      42.621  23.188  11.422  1.00  0.00     0.076 A 
ATOM      6  C5  UNK     1      42.341  21.737  11.396  1.00  0.00     0.167 C 
ATOM      7  C6  UNK     1      43.834  23.657  10.909  1.00  0.00     0.089 A 
ATOM      8  C7  UNK     1      41.668  24.085  11.912  1.00  0.00     0.085 A 
ATOM      9  C8  UNK     1      44.080  25.029  10.856  1.00  0.00     0.074 A 
ATOM     10  C11 UNK     1      41.929  25.455  11.875  1.00  0.00     0.074 A 
ATOM     11  C12 UNK     1      43.129  25.927  11.343  1.00  0.00     0.071 A 
ENDROOT
BRANCH   3  12
ATOM     12  C3  UNK     1      45.861  20.684  10.332  1.00  0.00    -0.028 A 
ATOM     13  C9  UNK     1      46.374  21.050   9.088  1.00  0.00     0.012 A 
ATOM     14  C13 UNK     1      47.384  20.287   8.500  1.00  0.00     0.037 A 
ATOM     15  C15 UNK     1      47.879  19.161   9.155  1.00  0.00     0.065 A 
ATOM     16  C14 UNK     1      47.364  18.795  10.400  1.00  0.00     0.037 A 
ATOM     17  C10 UNK     1      46.356  19.558  10.988  1.00  0.00     0.012 A 
BRANCH  15  18
ATOM     18  O5  UNK     1      48.863  18.417   8.581  1.00  0.00    -0.361 OA
ATOM     19  H12 UNK     1      49.709  18.625   9.014  1.00  0.00     0.217 HD
ENDBRANCH  15  18
ENDBRANCH   3  12
BRANCH   8  20
ATOM     20  O3  UNK     1      40.473  23.681  12.426  1.00  0.00    -0.360 OA
ATOM     21  H10 UNK     1      40.372  22.723  12.302  1.00  0.00     0.217 HD
ENDBRANCH   8  20
BRANCH  11  22
ATOM     22  O4  UNK     1      43.375  27.266  11.302  1.00  0.00    -0.361 OA
ATOM     23  H11 UNK     1      42.848  27.661  10.586  1.00  0.00     0.217 HD
ENDBRANCH  11  22
TORSDOF 4
ENDMDL
MODEL 20
REMARK VINA RESULT:      -5.3      4.819      8.249
REMARK  4 active torsions:
REMARK  status: ('A' for Active; 'I' for Inactive)
REMARK    1  A    between atoms: O3_3  and  C7_12 
REMARK    2  A    between atoms: O4_4  and  C12_17 
REMARK    3  A    between atoms: O5_5  and  C15_20 
REMARK    4  A    between atoms: C1_6  and  C3_8 
ROOT
ATOM      1  O1  UNK     1      44.388  18.783  11.603  1.00  0.00    -0.340 OA
ATOM      2  O2  UNK     1      41.176  21.228  10.877  1.00  0.00    -0.292 OA
ATOM      3  C1  UNK     1      44.357  19.628  10.443  1.00  0.00     0.169 C 
ATOM      4  C2  UNK     1      43.545  20.894  10.709  1.00  0.00     0.121 C 
ATOM      5  C4  UNK     1      42.000  19.227  11.820  1.00  0.00     0.076 A 
ATOM      6  C5  UNK     1      42.141  20.506  11.094  1.00  0.00     0.167 C 
ATOM      7  C6  UNK     1      43.137  18.448  12.053  1.00  0.00     0.089 A 
ATOM      8  C7  UNK     1      40.755  18.821  12.306  1.00  0.00     0.085 A 
ATOM      9  C8  UNK     1      43.034  17.276  12.803  1.00  0.00     0.074 A 
ATOM     10  C11 UNK     1      40.654  17.638  13.038  1.00  0.00     0.074 A 
ATOM     11  C12 UNK     1      41.791  16.869  13.291  1.00  0.00     0.071 A 
ENDROOT
BRANCH   3  12
ATOM     12  C3  UNK     1      45.783  19.965  10.058  1.00  0.00    -0.028 A 
ATOM     13  C9  UNK     1      46.846  19.376  10.741  1.00  0.00     0.012 A 
ATOM     14  C13 UNK     1      48.159  19.686  10.385  1.00  0.00     0.037 A 
ATOM     15  C15 UNK     1      48.408  20.584   9.349  1.00  0.00     0.065 A 
ATOM     16  C14 UNK     1      47.343  21.174   8.666  1.00  0.00     0.037 A 
ATOM     17  C10 UNK     1      46.030  20.863   9.020  1.00  0.00     0.012 A 
BRANCH  15  18
ATOM     18  O5  UNK     1      49.689  20.887   9.003  1.00  0.00    -0.361 OA
ATOM     19  H12 UNK     1      49.685  21.687   8.449  1.00  0.00     0.217 HD
ENDBRANCH  15  18
ENDBRANCH   3  12
BRANCH   8  20
ATOM     20  O3  UNK     1      39.616  19.540  12.104  1.00  0.00    -0.360 OA
ATOM     21  H10 UNK     1      39.656  19.976  11.236  1.00  0.00     0.217 HD
ENDBRANCH   8  20
BRANCH  11  22
ATOM     22  O4  UNK     1      41.688  15.719  14.013  1.00  0.00    -0.361 OA
ATOM     23  H11 UNK     1      41.006  15.154  13.609  1.00  0.00     0.217 HD
ENDBRANCH  11  22
TORSDOF 4
ENDMDL
