MODEL 1
REMARK VINA RESULT:      -7.4      0.000      0.000
REMARK  4 active torsions:
REMARK  status: ('A' for Active; 'I' for Inactive)
REMARK    1  A    between atoms: O3_3  and  C7_12 
REMARK    2  A    between atoms: O4_4  and  C12_17 
REMARK    3  A    between atoms: O5_5  and  C15_20 
REMARK    4  A    between atoms: C1_6  and  C3_8 
ROOT
ATOM      1  O1  UNK     1      39.850  15.307   0.116  1.00  0.00    -0.340 OA
ATOM      2  O2  UNK     1      41.474  16.101  -3.566  1.00  0.00    -0.292 OA
ATOM      3  C1  UNK     1      40.118  14.245  -0.812  1.00  0.00     0.169 C 
ATOM      4  C2  UNK     1      41.303  14.589  -1.712  1.00  0.00     0.121 C 
ATOM      5  C4  UNK     1      40.141  16.835  -1.761  1.00  0.00     0.076 A 
ATOM      6  C5  UNK     1      40.998  15.858  -2.464  1.00  0.00     0.167 C 
ATOM      7  C6  UNK     1      39.633  16.512  -0.500  1.00  0.00     0.089 A 
ATOM      8  C7  UNK     1      39.875  18.083  -2.331  1.00  0.00     0.085 A 
ATOM      9  C8  UNK     1      38.887  17.453   0.210  1.00  0.00     0.074 A 
ATOM     10  C11 UNK     1      39.110  19.013  -1.625  1.00  0.00     0.074 A 
ATOM     11  C12 UNK     1      38.621  18.701  -0.356  1.00  0.00     0.071 A 
ENDROOT
BRANCH   3  12
ATOM     12  C3  UNK     1      40.379  12.976  -0.026  1.00  0.00    -0.028 A 
ATOM     13  C9  UNK     1      40.762  11.812  -0.692  1.00  0.00     0.012 A 
ATOM     14  C13 UNK     1      41.003  10.643   0.032  1.00  0.00     0.037 A 
ATOM     15  C15 UNK     1      40.861  10.640   1.419  1.00  0.00     0.065 A 
ATOM     16  C14 UNK     1      40.478  11.806   2.084  1.00  0.00     0.037 A 
ATOM     17  C10 UNK     1      40.239  12.974   1.360  1.00  0.00     0.012 A 
BRANCH  15  18
ATOM     18  O5  UNK     1      41.096   9.501   2.125  1.00  0.00    -0.361 OA
ATOM     19  H12 UNK     1      41.809   9.002   1.691  1.00  0.00     0.217 HD
ENDBRANCH  15  18
ENDBRANCH   3  12
BRANCH   8  20
ATOM     20  O3  UNK     1      40.340  18.446  -3.558  1.00  0.00    -0.360 OA
ATOM     21  H10 UNK     1      39.845  19.218  -3.878  1.00  0.00     0.217 HD
ENDBRANCH   8  20
BRANCH  11  22
ATOM     22  O4  UNK     1      37.882  19.615   0.331  1.00  0.00    -0.361 OA
ATOM     23  H11 UNK     1      38.470  20.322   0.649  1.00  0.00     0.217 HD
ENDBRANCH  11  22
TORSDOF 4
ENDMDL
MODEL 2
REMARK VINA RESULT:      -7.1      1.339      3.023
REMARK  4 active torsions:
REMARK  status: ('A' for Active; 'I' for Inactive)
REMARK    1  A    between atoms: O3_3  and  C7_12 
REMARK    2  A    between atoms: O4_4  and  C12_17 
REMARK    3  A    between atoms: O5_5  and  C15_20 
REMARK    4  A    between atoms: C1_6  and  C3_8 
ROOT
ATOM      1  O1  UNK     1      40.460  15.122  -1.991  1.00  0.00    -0.340 OA
ATOM      2  O2  UNK     1      38.806  18.075   0.327  1.00  0.00    -0.292 OA
ATOM      3  C1  UNK     1      40.523  15.052  -0.558  1.00  0.00     0.169 C 
ATOM      4  C2  UNK     1      39.320  15.745   0.078  1.00  0.00     0.121 C 
ATOM      5  C4  UNK     1      39.828  17.460  -1.710  1.00  0.00     0.076 A 
ATOM      6  C5  UNK     1      39.293  17.186  -0.360  1.00  0.00     0.167 C 
ATOM      7  C6  UNK     1      40.362  16.407  -2.458  1.00  0.00     0.089 A 
ATOM      8  C7  UNK     1      39.764  18.747  -2.250  1.00  0.00     0.085 A 
ATOM      9  C8  UNK     1      40.800  16.635  -3.763  1.00  0.00     0.074 A 
ATOM     10  C11 UNK     1      40.223  18.974  -3.548  1.00  0.00     0.074 A 
ATOM     11  C12 UNK     1      40.735  17.919  -4.306  1.00  0.00     0.071 A 
ENDROOT
BRANCH   3  12
ATOM     12  C3  UNK     1      40.590  13.593  -0.153  1.00  0.00    -0.028 A 
ATOM     13  C9  UNK     1      40.161  13.203   1.116  1.00  0.00     0.012 A 
ATOM     14  C13 UNK     1      40.223  11.860   1.489  1.00  0.00     0.037 A 
ATOM     15  C15 UNK     1      40.713  10.909   0.594  1.00  0.00     0.065 A 
ATOM     16  C14 UNK     1      41.142  11.301  -0.675  1.00  0.00     0.037 A 
ATOM     17  C10 UNK     1      41.079  12.644  -1.048  1.00  0.00     0.012 A 
BRANCH  15  18
ATOM     18  O5  UNK     1      40.773   9.599   0.959  1.00  0.00    -0.361 OA
ATOM     19  H12 UNK     1      40.764   9.049   0.157  1.00  0.00     0.217 HD
ENDBRANCH  15  18
ENDBRANCH   3  12
BRANCH   8  20
ATOM     20  O3  UNK     1      39.259  19.809  -1.563  1.00  0.00    -0.360 OA
ATOM     21  H10 UNK     1      39.985  20.390  -1.282  1.00  0.00     0.217 HD
ENDBRANCH   8  20
BRANCH  11  22
ATOM     22  O4  UNK     1      41.174  18.144  -5.574  1.00  0.00    -0.361 OA
ATOM     23  H11 UNK     1      41.401  19.086  -5.668  1.00  0.00     0.217 HD
ENDBRANCH  11  22
TORSDOF 4
ENDMDL
MODEL 3
REMARK VINA RESULT:      -7.0      0.982      1.108
REMARK  4 active torsions:
REMARK  status: ('A' for Active; 'I' for Inactive)
REMARK    1  A    between atoms: O3_3  and  C7_12 
REMARK    2  A    between atoms: O4_4  and  C12_17 
REMARK    3  A    between atoms: O5_5  and  C15_20 
REMARK    4  A    between atoms: C1_6  and  C3_8 
ROOT
ATOM      1  O1  UNK     1      39.832  15.861  -0.168  1.00  0.00    -0.340 OA
ATOM      2  O2  UNK     1      40.924  17.252  -3.868  1.00  0.00    -0.292 OA
ATOM      3  C1  UNK     1      39.897  14.974  -1.295  1.00  0.00     0.169 C 
ATOM      4  C2  UNK     1      40.950  15.439  -2.298  1.00  0.00     0.121 C 
ATOM      5  C4  UNK     1      39.921  17.690  -1.777  1.00  0.00     0.076 A 
ATOM      6  C5  UNK     1      40.606  16.830  -2.764  1.00  0.00     0.167 C 
ATOM      7  C6  UNK     1      39.592  17.162  -0.525  1.00  0.00     0.089 A 
ATOM      8  C7  UNK     1      39.642  19.027  -2.074  1.00  0.00     0.085 A 
ATOM      9  C8  UNK     1      39.014  17.982   0.444  1.00  0.00     0.074 A 
ATOM     10  C11 UNK     1      39.045  19.837  -1.108  1.00  0.00     0.074 A 
ATOM     11  C12 UNK     1      38.737  19.319   0.150  1.00  0.00     0.071 A 
ENDROOT
BRANCH   3  12
ATOM     12  C3  UNK     1      40.202  13.579  -0.790  1.00  0.00    -0.028 A 
ATOM     13  C9  UNK     1      41.169  12.804  -1.429  1.00  0.00     0.012 A 
ATOM     14  C13 UNK     1      41.451  11.519  -0.964  1.00  0.00     0.037 A 
ATOM     15  C15 UNK     1      40.766  11.010   0.139  1.00  0.00     0.065 A 
ATOM     16  C14 UNK     1      39.798  11.787   0.777  1.00  0.00     0.037 A 
ATOM     17  C10 UNK     1      39.517  13.072   0.313  1.00  0.00     0.012 A 
BRANCH  15  18
ATOM     18  O5  UNK     1      41.040   9.757   0.593  1.00  0.00    -0.361 OA
ATOM     19  H12 UNK     1      40.568   9.615   1.431  1.00  0.00     0.217 HD
ENDBRANCH  15  18
ENDBRANCH   3  12
BRANCH   8  20
ATOM     20  O3  UNK     1      39.937  19.590  -3.279  1.00  0.00    -0.360 OA
ATOM     21  H10 UNK     1      39.954  20.557  -3.190  1.00  0.00     0.217 HD
ENDBRANCH   8  20
BRANCH  11  22
ATOM     22  O4  UNK     1      38.161  20.116   1.092  1.00  0.00    -0.361 OA
ATOM     23  H11 UNK     1      38.860  20.495   1.654  1.00  0.00     0.217 HD
ENDBRANCH  11  22
TORSDOF 4
ENDMDL
MODEL 4
REMARK VINA RESULT:      -6.1      1.605      6.436
REMARK  4 active torsions:
REMARK  status: ('A' for Active; 'I' for Inactive)
REMARK    1  A    between atoms: O3_3  and  C7_12 
REMARK    2  A    between atoms: O4_4  and  C12_17 
REMARK    3  A    between atoms: O5_5  and  C15_20 
REMARK    4  A    between atoms: C1_6  and  C3_8 
ROOT
ATOM      1  O1  UNK     1      39.369  15.078  -0.314  1.00  0.00    -0.340 OA
ATOM      2  O2  UNK     1      42.518  14.418  -2.858  1.00  0.00    -0.292 OA
ATOM      3  C1  UNK     1      40.292  16.132  -0.628  1.00  0.00     0.169 C 
ATOM      4  C2  UNK     1      40.872  15.953  -2.030  1.00  0.00     0.121 C 
ATOM      5  C4  UNK     1      41.011  13.546  -1.265  1.00  0.00     0.076 A 
ATOM      6  C5  UNK     1      41.575  14.622  -2.105  1.00  0.00     0.167 C 
ATOM      7  C6  UNK     1      39.924  13.830  -0.432  1.00  0.00     0.089 A 
ATOM      8  C7  UNK     1      41.528  12.250  -1.332  1.00  0.00     0.085 A 
ATOM      9  C8  UNK     1      39.332  12.807   0.309  1.00  0.00     0.074 A 
ATOM     10  C11 UNK     1      40.945  11.235  -0.572  1.00  0.00     0.074 A 
ATOM     11  C12 UNK     1      39.846  11.511   0.242  1.00  0.00     0.071 A 
ENDROOT
BRANCH   3  12
ATOM     12  C3  UNK     1      39.567  17.456  -0.503  1.00  0.00    -0.028 A 
ATOM     13  C9  UNK     1      39.687  18.414  -1.510  1.00  0.00     0.012 A 
ATOM     14  C13 UNK     1      39.019  19.634  -1.394  1.00  0.00     0.037 A 
ATOM     15  C15 UNK     1      38.232  19.894  -0.273  1.00  0.00     0.065 A 
ATOM     16  C14 UNK     1      38.112  18.935   0.734  1.00  0.00     0.037 A 
ATOM     17  C10 UNK     1      38.779  17.716   0.617  1.00  0.00     0.012 A 
BRANCH  15  18
ATOM     18  O5  UNK     1      37.580  21.084  -0.160  1.00  0.00    -0.361 OA
ATOM     19  H12 UNK     1      38.145  21.707   0.328  1.00  0.00     0.217 HD
ENDBRANCH  15  18
ENDBRANCH   3  12
BRANCH   8  20
ATOM     20  O3  UNK     1      42.587  11.920  -2.122  1.00  0.00    -0.360 OA
ATOM     21  H10 UNK     1      42.301  11.879  -3.050  1.00  0.00     0.217 HD
ENDBRANCH   8  20
BRANCH  11  22
ATOM     22  O4  UNK     1      39.275  10.516   0.975  1.00  0.00    -0.361 OA
ATOM     23  H11 UNK     1      39.230   9.710   0.431  1.00  0.00     0.217 HD
ENDBRANCH  11  22
TORSDOF 4
ENDMDL
MODEL 5
REMARK VINA RESULT:      -5.6     10.144     12.887
REMARK  4 active torsions:
REMARK  status: ('A' for Active; 'I' for Inactive)
REMARK    1  A    between atoms: O3_3  and  C7_12 
REMARK    2  A    between atoms: O4_4  and  C12_17 
REMARK    3  A    between atoms: O5_5  and  C15_20 
REMARK    4  A    between atoms: C1_6  and  C3_8 
ROOT
ATOM      1  O1  UNK     1      48.343   9.847  -6.827  1.00  0.00    -0.340 OA
ATOM      2  O2  UNK     1      45.808  10.059 -10.045  1.00  0.00    -0.292 OA
ATOM      3  C1  UNK     1      48.001  11.114  -7.409  1.00  0.00     0.169 C 
ATOM      4  C2  UNK     1      46.603  11.076  -8.023  1.00  0.00     0.121 C 
ATOM      5  C4  UNK     1      47.426   8.829  -8.844  1.00  0.00     0.076 A 
ATOM      6  C5  UNK     1      46.558  10.002  -9.079  1.00  0.00     0.167 C 
ATOM      7  C6  UNK     1      48.253   8.809  -7.717  1.00  0.00     0.089 A 
ATOM      8  C7  UNK     1      47.389   7.735  -9.712  1.00  0.00     0.085 A 
ATOM      9  C8  UNK     1      49.020   7.677  -7.440  1.00  0.00     0.074 A 
ATOM     10  C11 UNK     1      48.174   6.614  -9.441  1.00  0.00     0.074 A 
ATOM     11  C12 UNK     1      48.984   6.582  -8.305  1.00  0.00     0.071 A 
ENDROOT
BRANCH   3  12
ATOM     12  C3  UNK     1      48.096  12.177  -6.334  1.00  0.00    -0.028 A 
ATOM     13  C9  UNK     1      48.569  13.449  -6.653  1.00  0.00     0.012 A 
ATOM     14  C13 UNK     1      48.656  14.428  -5.662  1.00  0.00     0.037 A 
ATOM     15  C15 UNK     1      48.270  14.134  -4.355  1.00  0.00     0.065 A 
ATOM     16  C14 UNK     1      47.797  12.860  -4.037  1.00  0.00     0.037 A 
ATOM     17  C10 UNK     1      47.709  11.882  -5.027  1.00  0.00     0.012 A 
BRANCH  15  18
ATOM     18  O5  UNK     1      48.356  15.089  -3.388  1.00  0.00    -0.361 OA
ATOM     19  H12 UNK     1      48.933  15.805  -3.703  1.00  0.00     0.217 HD
ENDBRANCH  15  18
ENDBRANCH   3  12
BRANCH   8  20
ATOM     20  O3  UNK     1      46.604   7.704 -10.825  1.00  0.00    -0.360 OA
ATOM     21  H10 UNK     1      45.860   7.097 -10.682  1.00  0.00     0.217 HD
ENDBRANCH   8  20
BRANCH  11  22
ATOM     22  O4  UNK     1      49.742   5.482  -8.041  1.00  0.00    -0.361 OA
ATOM     23  H11 UNK     1      49.356   5.007  -7.284  1.00  0.00     0.217 HD
ENDBRANCH  11  22
TORSDOF 4
ENDMDL
MODEL 6
REMARK VINA RESULT:      -5.6     10.145     12.902
REMARK  4 active torsions:
REMARK  status: ('A' for Active; 'I' for Inactive)
REMARK    1  A    between atoms: O3_3  and  C7_12 
REMARK    2  A    between atoms: O4_4  and  C12_17 
REMARK    3  A    between atoms: O5_5  and  C15_20 
REMARK    4  A    between atoms: C1_6  and  C3_8 
ROOT
ATOM      1  O1  UNK     1      48.342   9.848  -6.828  1.00  0.00    -0.340 OA
ATOM      2  O2  UNK     1      45.808  10.060 -10.047  1.00  0.00    -0.292 OA
ATOM      3  C1  UNK     1      48.000  11.115  -7.411  1.00  0.00     0.169 C 
ATOM      4  C2  UNK     1      46.602  11.077  -8.025  1.00  0.00     0.121 C 
ATOM      5  C4  UNK     1      47.425   8.829  -8.845  1.00  0.00     0.076 A 
ATOM      6  C5  UNK     1      46.557  10.002  -9.081  1.00  0.00     0.167 C 
ATOM      7  C6  UNK     1      48.252   8.810  -7.719  1.00  0.00     0.089 A 
ATOM      8  C7  UNK     1      47.388   7.735  -9.713  1.00  0.00     0.085 A 
ATOM      9  C8  UNK     1      49.019   7.678  -7.441  1.00  0.00     0.074 A 
ATOM     10  C11 UNK     1      48.173   6.614  -9.442  1.00  0.00     0.074 A 
ATOM     11  C12 UNK     1      48.983   6.582  -8.306  1.00  0.00     0.071 A 
ENDROOT
BRANCH   3  12
ATOM     12  C3  UNK     1      48.095  12.178  -6.336  1.00  0.00    -0.028 A 
ATOM     13  C9  UNK     1      47.709  11.881  -5.029  1.00  0.00     0.012 A 
ATOM     14  C13 UNK     1      47.797  12.860  -4.038  1.00  0.00     0.037 A 
ATOM     15  C15 UNK     1      48.270  14.133  -4.355  1.00  0.00     0.065 A 
ATOM     16  C14 UNK     1      48.656  14.428  -5.664  1.00  0.00     0.037 A 
ATOM     17  C10 UNK     1      48.569  13.449  -6.653  1.00  0.00     0.012 A 
BRANCH  15  18
ATOM     18  O5  UNK     1      48.355  15.088  -3.389  1.00  0.00    -0.361 OA
ATOM     19  H12 UNK     1      47.576  15.666  -3.447  1.00  0.00     0.217 HD
ENDBRANCH  15  18
ENDBRANCH   3  12
BRANCH   8  20
ATOM     20  O3  UNK     1      46.604   7.705 -10.826  1.00  0.00    -0.360 OA
ATOM     21  H10 UNK     1      46.670   6.832 -11.247  1.00  0.00     0.217 HD
ENDBRANCH   8  20
BRANCH  11  22
ATOM     22  O4  UNK     1      49.741   5.483  -8.042  1.00  0.00    -0.361 OA
ATOM     23  H11 UNK     1      50.109   5.561  -7.144  1.00  0.00     0.217 HD
ENDBRANCH  11  22
TORSDOF 4
ENDMDL
MODEL 7
REMARK VINA RESULT:      -5.6      9.691     12.051
REMARK  4 active torsions:
REMARK  status: ('A' for Active; 'I' for Inactive)
REMARK    1  A    between atoms: O3_3  and  C7_12 
REMARK    2  A    between atoms: O4_4  and  C12_17 
REMARK    3  A    between atoms: O5_5  and  C15_20 
REMARK    4  A    between atoms: C1_6  and  C3_8 
ROOT
ATOM      1  O1  UNK     1      46.147  11.078  -7.766  1.00  0.00    -0.340 OA
ATOM      2  O2  UNK     1      48.888   9.996 -10.619  1.00  0.00    -0.292 OA
ATOM      3  C1  UNK     1      47.554  11.103  -7.479  1.00  0.00     0.169 C 
ATOM      4  C2  UNK     1      48.366  11.392  -8.739  1.00  0.00     0.121 C 
ATOM      5  C4  UNK     1      46.713   9.755  -9.734  1.00  0.00     0.076 A 
ATOM      6  C5  UNK     1      48.074  10.328  -9.767  1.00  0.00     0.167 C 
ATOM      7  C6  UNK     1      45.819  10.180  -8.747  1.00  0.00     0.089 A 
ATOM      8  C7  UNK     1      46.310   8.832 -10.702  1.00  0.00     0.085 A 
ATOM      9  C8  UNK     1      44.506   9.706  -8.750  1.00  0.00     0.074 A 
ATOM     10  C11 UNK     1      45.002   8.345 -10.687  1.00  0.00     0.074 A 
ATOM     11  C12 UNK     1      44.100   8.785  -9.717  1.00  0.00     0.071 A 
ENDROOT
BRANCH   3  12
ATOM     12  C3  UNK     1      47.807  12.151  -6.414  1.00  0.00    -0.028 A 
ATOM     13  C9  UNK     1      48.308  13.401  -6.775  1.00  0.00     0.012 A 
ATOM     14  C13 UNK     1      48.541  14.367  -5.794  1.00  0.00     0.037 A 
ATOM     15  C15 UNK     1      48.273  14.081  -4.456  1.00  0.00     0.065 A 
ATOM     16  C14 UNK     1      47.771  12.829  -4.097  1.00  0.00     0.037 A 
ATOM     17  C10 UNK     1      47.538  11.865  -5.077  1.00  0.00     0.012 A 
BRANCH  15  18
ATOM     18  O5  UNK     1      48.500  15.023  -3.500  1.00  0.00    -0.361 OA
ATOM     19  H12 UNK     1      47.647  15.320  -3.141  1.00  0.00     0.217 HD
ENDBRANCH  15  18
ENDBRANCH   3  12
BRANCH   8  20
ATOM     20  O3  UNK     1      47.142   8.381 -11.682  1.00  0.00    -0.360 OA
ATOM     21  H10 UNK     1      47.013   7.426 -11.804  1.00  0.00     0.217 HD
ENDBRANCH   8  20
BRANCH  11  22
ATOM     22  O4  UNK     1      42.823   8.312  -9.712  1.00  0.00    -0.361 OA
ATOM     23  H11 UNK     1      42.696   7.756  -8.924  1.00  0.00     0.217 HD
ENDBRANCH  11  22
TORSDOF 4
ENDMDL
MODEL 8
REMARK VINA RESULT:      -5.5      9.801     12.175
REMARK  4 active torsions:
REMARK  status: ('A' for Active; 'I' for Inactive)
REMARK    1  A    between atoms: O3_3  and  C7_12 
REMARK    2  A    between atoms: O4_4  and  C12_17 
REMARK    3  A    between atoms: O5_5  and  C15_20 
REMARK    4  A    between atoms: C1_6  and  C3_8 
ROOT
ATOM      1  O1  UNK     1      46.343  11.017  -7.773  1.00  0.00    -0.340 OA
ATOM      2  O2  UNK     1      48.878  10.657 -10.978  1.00  0.00    -0.292 OA
ATOM      3  C1  UNK     1      47.751  11.253  -7.625  1.00  0.00     0.169 C 
ATOM      4  C2  UNK     1      48.358  11.780  -8.923  1.00  0.00     0.121 C 
ATOM      5  C4  UNK     1      46.883   9.980  -9.913  1.00  0.00     0.076 A 
ATOM      6  C5  UNK     1      48.124  10.775 -10.021  1.00  0.00     0.167 C 
ATOM      7  C6  UNK     1      46.051  10.163  -8.805  1.00  0.00     0.089 A 
ATOM      8  C7  UNK     1      46.523   9.087 -10.926  1.00  0.00     0.085 A 
ATOM      9  C8  UNK     1      44.838   9.477  -8.727  1.00  0.00     0.074 A 
ATOM     10  C11 UNK     1      45.319   8.388 -10.832  1.00  0.00     0.074 A 
ATOM     11  C12 UNK     1      44.475   8.586  -9.738  1.00  0.00     0.071 A 
ENDROOT
BRANCH   3  12
ATOM     12  C3  UNK     1      47.955  12.235  -6.489  1.00  0.00    -0.028 A 
ATOM     13  C9  UNK     1      47.631  11.865  -5.184  1.00  0.00     0.012 A 
ATOM     14  C13 UNK     1      47.820  12.769  -4.138  1.00  0.00     0.037 A 
ATOM     15  C15 UNK     1      48.330  14.041  -4.397  1.00  0.00     0.065 A 
ATOM     16  C14 UNK     1      48.653  14.409  -5.704  1.00  0.00     0.037 A 
ATOM     17  C10 UNK     1      48.466  13.505  -6.750  1.00  0.00     0.012 A 
BRANCH  15  18
ATOM     18  O5  UNK     1      48.513  14.922  -3.377  1.00  0.00    -0.361 OA
ATOM     19  H12 UNK     1      49.465  15.094  -3.275  1.00  0.00     0.217 HD
ENDBRANCH  15  18
ENDBRANCH   3  12
BRANCH   8  20
ATOM     20  O3  UNK     1      47.299   8.868 -12.024  1.00  0.00    -0.360 OA
ATOM     21  H10 UNK     1      48.230   9.036 -11.803  1.00  0.00     0.217 HD
ENDBRANCH   8  20
BRANCH  11  22
ATOM     22  O4  UNK     1      43.298   7.907  -9.656  1.00  0.00    -0.361 OA
ATOM     23  H11 UNK     1      43.004   7.897  -8.728  1.00  0.00     0.217 HD
ENDBRANCH  11  22
TORSDOF 4
ENDMDL
MODEL 9
REMARK VINA RESULT:      -5.5     10.092     11.991
REMARK  4 active torsions:
REMARK  status: ('A' for Active; 'I' for Inactive)
REMARK    1  A    between atoms: O3_3  and  C7_12 
REMARK    2  A    between atoms: O4_4  and  C12_17 
REMARK    3  A    between atoms: O5_5  and  C15_20 
REMARK    4  A    between atoms: C1_6  and  C3_8 
ROOT
ATOM      1  O1  UNK     1      46.205  11.398  -7.897  1.00  0.00    -0.340 OA
ATOM      2  O2  UNK     1      48.116   8.030  -9.249  1.00  0.00    -0.292 OA
ATOM      3  C1  UNK     1      47.373  10.899  -7.229  1.00  0.00     0.169 C 
ATOM      4  C2  UNK     1      48.301  10.183  -8.207  1.00  0.00     0.121 C 
ATOM      5  C4  UNK     1      46.102   9.242  -9.030  1.00  0.00     0.076 A 
ATOM      6  C5  UNK     1      47.555   9.041  -8.847  1.00  0.00     0.167 C 
ATOM      7  C6  UNK     1      45.513  10.420  -8.564  1.00  0.00     0.089 A 
ATOM      8  C7  UNK     1      45.334   8.285  -9.699  1.00  0.00     0.085 A 
ATOM      9  C8  UNK     1      44.158  10.659  -8.798  1.00  0.00     0.074 A 
ATOM     10  C11 UNK     1      43.975   8.519  -9.911  1.00  0.00     0.074 A 
ATOM     11  C12 UNK     1      43.389   9.706  -9.467  1.00  0.00     0.071 A 
ENDROOT
BRANCH   3  12
ATOM     12  C3  UNK     1      48.077  12.063  -6.562  1.00  0.00    -0.028 A 
ATOM     13  C9  UNK     1      49.024  12.802  -7.271  1.00  0.00     0.012 A 
ATOM     14  C13 UNK     1      49.672  13.875  -6.656  1.00  0.00     0.037 A 
ATOM     15  C15 UNK     1      49.373  14.207  -5.336  1.00  0.00     0.065 A 
ATOM     16  C14 UNK     1      48.425  13.466  -4.628  1.00  0.00     0.037 A 
ATOM     17  C10 UNK     1      47.777  12.395  -5.242  1.00  0.00     0.012 A 
BRANCH  15  18
ATOM     18  O5  UNK     1      50.005  15.253  -4.737  1.00  0.00    -0.361 OA
ATOM     19  H12 UNK     1      50.872  15.380  -5.158  1.00  0.00     0.217 HD
ENDBRANCH  15  18
ENDBRANCH   3  12
BRANCH   8  20
ATOM     20  O3  UNK     1      45.856   7.118 -10.169  1.00  0.00    -0.360 OA
ATOM     21  H10 UNK     1      45.631   7.017 -11.109  1.00  0.00     0.217 HD
ENDBRANCH   8  20
BRANCH  11  22
ATOM     22  O4  UNK     1      42.064   9.933  -9.684  1.00  0.00    -0.361 OA
ATOM     23  H11 UNK     1      41.659  10.249  -8.857  1.00  0.00     0.217 HD
ENDBRANCH  11  22
TORSDOF 4
ENDMDL
MODEL 10
REMARK VINA RESULT:      -5.5     10.033     11.271
REMARK  4 active torsions:
REMARK  status: ('A' for Active; 'I' for Inactive)
REMARK    1  A    between atoms: O3_3  and  C7_12 
REMARK    2  A    between atoms: O4_4  and  C12_17 
REMARK    3  A    between atoms: O5_5  and  C15_20 
REMARK    4  A    between atoms: C1_6  and  C3_8 
ROOT
ATOM      1  O1  UNK     1      46.343  11.341  -7.253  1.00  0.00    -0.340 OA
ATOM      2  O2  UNK     1      48.528  12.086 -10.644  1.00  0.00    -0.292 OA
ATOM      3  C1  UNK     1      47.769  11.171  -7.260  1.00  0.00     0.169 C 
ATOM      4  C2  UNK     1      48.431  12.129  -8.248  1.00  0.00     0.121 C 
ATOM      5  C4  UNK     1      46.479  11.409  -9.687  1.00  0.00     0.076 A 
ATOM      6  C5  UNK     1      47.881  11.871  -9.627  1.00  0.00     0.167 C 
ATOM      7  C6  UNK     1      45.782  11.191  -8.494  1.00  0.00     0.089 A 
ATOM      8  C7  UNK     1      45.843  11.232 -10.918  1.00  0.00     0.085 A 
ATOM      9  C8  UNK     1      44.435  10.829  -8.534  1.00  0.00     0.074 A 
ATOM     10  C11 UNK     1      44.502  10.849 -10.952  1.00  0.00     0.074 A 
ATOM     11  C12 UNK     1      43.797  10.653  -9.763  1.00  0.00     0.071 A 
ENDROOT
BRANCH   3  12
ATOM     12  C3  UNK     1      48.285  11.395  -5.853  1.00  0.00    -0.028 A 
ATOM     13  C9  UNK     1      48.071  12.619  -5.220  1.00  0.00     0.012 A 
ATOM     14  C13 UNK     1      48.546  12.825  -3.925  1.00  0.00     0.037 A 
ATOM     15  C15 UNK     1      49.233  11.808  -3.263  1.00  0.00     0.065 A 
ATOM     16  C14 UNK     1      49.447  10.584  -3.898  1.00  0.00     0.037 A 
ATOM     17  C10 UNK     1      48.971  10.377  -5.192  1.00  0.00     0.012 A 
BRANCH  15  18
ATOM     18  O5  UNK     1      49.697  12.010  -2.000  1.00  0.00    -0.361 OA
ATOM     19  H12 UNK     1      48.939  12.097  -1.396  1.00  0.00     0.217 HD
ENDBRANCH  15  18
ENDBRANCH   3  12
BRANCH   8  20
ATOM     20  O3  UNK     1      46.477  11.426 -12.108  1.00  0.00    -0.360 OA
ATOM     21  H10 UNK     1      45.818  11.506 -12.818  1.00  0.00     0.217 HD
ENDBRANCH   8  20
BRANCH  11  22
ATOM     22  O4  UNK     1      42.486  10.288  -9.802  1.00  0.00    -0.361 OA
ATOM     23  H11 UNK     1      42.031  10.662  -9.028  1.00  0.00     0.217 HD
ENDBRANCH  11  22
TORSDOF 4
ENDMDL
MODEL 11
REMARK VINA RESULT:      -5.4      9.763     11.465
REMARK  4 active torsions:
REMARK  status: ('A' for Active; 'I' for Inactive)
REMARK    1  A    between atoms: O3_3  and  C7_12 
REMARK    2  A    between atoms: O4_4  and  C12_17 
REMARK    3  A    between atoms: O5_5  and  C15_20 
REMARK    4  A    between atoms: C1_6  and  C3_8 
ROOT
ATOM      1  O1  UNK     1      47.302  11.852  -6.891  1.00  0.00    -0.340 OA
ATOM      2  O2  UNK     1      50.703  12.742  -9.005  1.00  0.00    -0.292 OA
ATOM      3  C1  UNK     1      47.327  11.737  -8.322  1.00  0.00     0.169 C 
ATOM      4  C2  UNK     1      48.729  11.391  -8.820  1.00  0.00     0.121 C 
ATOM      5  C4  UNK     1      49.370  13.127  -7.095  1.00  0.00     0.076 A 
ATOM      6  C5  UNK     1      49.688  12.466  -8.378  1.00  0.00     0.167 C 
ATOM      7  C6  UNK     1      48.205  12.765  -6.413  1.00  0.00     0.089 A 
ATOM      8  C7  UNK     1      50.245  14.070  -6.548  1.00  0.00     0.085 A 
ATOM      9  C8  UNK     1      47.931  13.323  -5.164  1.00  0.00     0.074 A 
ATOM     10  C11 UNK     1      49.955  14.640  -5.308  1.00  0.00     0.074 A 
ATOM     11  C12 UNK     1      48.803  14.264  -4.614  1.00  0.00     0.071 A 
ENDROOT
BRANCH   3  12
ATOM     12  C3  UNK     1      46.324  10.680  -8.736  1.00  0.00    -0.028 A 
ATOM     13  C9  UNK     1      44.958  10.941  -8.636  1.00  0.00     0.012 A 
ATOM     14  C13 UNK     1      44.034   9.967  -9.018  1.00  0.00     0.037 A 
ATOM     15  C15 UNK     1      44.477   8.735  -9.498  1.00  0.00     0.065 A 
ATOM     16  C14 UNK     1      45.845   8.475  -9.596  1.00  0.00     0.037 A 
ATOM     17  C10 UNK     1      46.768   9.449  -9.216  1.00  0.00     0.012 A 
BRANCH  15  18
ATOM     18  O5  UNK     1      43.576   7.785  -9.869  1.00  0.00    -0.361 OA
ATOM     19  H12 UNK     1      43.271   7.313  -9.076  1.00  0.00     0.217 HD
ENDBRANCH  15  18
ENDBRANCH   3  12
BRANCH   8  20
ATOM     20  O3  UNK     1      51.390  14.461  -7.172  1.00  0.00    -0.360 OA
ATOM     21  H10 UNK     1      51.195  14.688  -8.097  1.00  0.00     0.217 HD
ENDBRANCH   8  20
BRANCH  11  22
ATOM     22  O4  UNK     1      48.529  14.818  -3.401  1.00  0.00    -0.361 OA
ATOM     23  H11 UNK     1      47.570  14.777  -3.245  1.00  0.00     0.217 HD
ENDBRANCH  11  22
TORSDOF 4
ENDMDL
MODEL 12
REMARK VINA RESULT:      -5.4      9.762     11.432
REMARK  4 active torsions:
REMARK  status: ('A' for Active; 'I' for Inactive)
REMARK    1  A    between atoms: O3_3  and  C7_12 
REMARK    2  A    between atoms: O4_4  and  C12_17 
REMARK    3  A    between atoms: O5_5  and  C15_20 
REMARK    4  A    between atoms: C1_6  and  C3_8 
ROOT
ATOM      1  O1  UNK     1      47.300  11.848  -6.893  1.00  0.00    -0.340 OA
ATOM      2  O2  UNK     1      50.701  12.738  -9.007  1.00  0.00    -0.292 OA
ATOM      3  C1  UNK     1      47.325  11.734  -8.324  1.00  0.00     0.169 C 
ATOM      4  C2  UNK     1      48.727  11.387  -8.821  1.00  0.00     0.121 C 
ATOM      5  C4  UNK     1      49.369  13.123  -7.096  1.00  0.00     0.076 A 
ATOM      6  C5  UNK     1      49.686  12.462  -8.379  1.00  0.00     0.167 C 
ATOM      7  C6  UNK     1      48.203  12.762  -6.414  1.00  0.00     0.089 A 
ATOM      8  C7  UNK     1      50.243  14.066  -6.550  1.00  0.00     0.085 A 
ATOM      9  C8  UNK     1      47.929  13.320  -5.165  1.00  0.00     0.074 A 
ATOM     10  C11 UNK     1      49.953  14.636  -5.310  1.00  0.00     0.074 A 
ATOM     11  C12 UNK     1      48.801  14.260  -4.616  1.00  0.00     0.071 A 
ENDROOT
BRANCH   3  12
ATOM     12  C3  UNK     1      46.322  10.677  -8.738  1.00  0.00    -0.028 A 
ATOM     13  C9  UNK     1      46.767   9.445  -9.216  1.00  0.00     0.012 A 
ATOM     14  C13 UNK     1      45.843   8.471  -9.596  1.00  0.00     0.037 A 
ATOM     15  C15 UNK     1      44.477   8.730  -9.499  1.00  0.00     0.065 A 
ATOM     16  C14 UNK     1      44.033   9.963  -9.021  1.00  0.00     0.037 A 
ATOM     17  C10 UNK     1      44.956  10.936  -8.639  1.00  0.00     0.012 A 
BRANCH  15  18
ATOM     18  O5  UNK     1      43.575   7.780  -9.871  1.00  0.00    -0.361 OA
ATOM     19  H12 UNK     1      43.020   8.135 -10.586  1.00  0.00     0.217 HD
ENDBRANCH  15  18
ENDBRANCH   3  12
BRANCH   8  20
ATOM     20  O3  UNK     1      51.388  14.457  -7.174  1.00  0.00    -0.360 OA
ATOM     21  H10 UNK     1      51.558  13.877  -7.935  1.00  0.00     0.217 HD
ENDBRANCH   8  20
BRANCH  11  22
ATOM     22  O4  UNK     1      48.527  14.814  -3.403  1.00  0.00    -0.361 OA
ATOM     23  H11 UNK     1      47.596  15.094  -3.387  1.00  0.00     0.217 HD
ENDBRANCH  11  22
TORSDOF 4
ENDMDL
MODEL 13
REMARK VINA RESULT:      -5.4     10.085     12.221
REMARK  4 active torsions:
REMARK  status: ('A' for Active; 'I' for Inactive)
REMARK    1  A    between atoms: O3_3  and  C7_12 
REMARK    2  A    between atoms: O4_4  and  C12_17 
REMARK    3  A    between atoms: O5_5  and  C15_20 
REMARK    4  A    between atoms: C1_6  and  C3_8 
ROOT
ATOM      1  O1  UNK     1      47.768  11.334  -5.919  1.00  0.00    -0.340 OA
ATOM      2  O2  UNK     1      50.705   8.628  -6.855  1.00  0.00    -0.292 OA
ATOM      3  C1  UNK     1      48.153  11.112  -7.284  1.00  0.00     0.169 C 
ATOM      4  C2  UNK     1      48.645   9.681  -7.489  1.00  0.00     0.121 C 
ATOM      5  C4  UNK     1      49.812  10.160  -5.296  1.00  0.00     0.076 A 
ATOM      6  C5  UNK     1      49.821   9.430  -6.581  1.00  0.00     0.167 C 
ATOM      7  C6  UNK     1      48.772  11.055  -5.029  1.00  0.00     0.089 A 
ATOM      8  C7  UNK     1      50.806   9.927  -4.342  1.00  0.00     0.085 A 
ATOM      9  C8  UNK     1      48.708  11.693  -3.790  1.00  0.00     0.074 A 
ATOM     10  C11 UNK     1      50.748  10.584  -3.113  1.00  0.00     0.074 A 
ATOM     11  C12 UNK     1      49.698  11.461  -2.834  1.00  0.00     0.071 A 
ENDROOT
BRANCH   3  12
ATOM     12  C3  UNK     1      46.963  11.413  -8.172  1.00  0.00    -0.028 A 
ATOM     13  C9  UNK     1      47.158  11.702  -9.522  1.00  0.00     0.012 A 
ATOM     14  C13 UNK     1      46.062  11.978 -10.340  1.00  0.00     0.037 A 
ATOM     15  C15 UNK     1      44.773  11.966  -9.808  1.00  0.00     0.065 A 
ATOM     16  C14 UNK     1      44.580  11.678  -8.456  1.00  0.00     0.037 A 
ATOM     17  C10 UNK     1      45.675  11.400  -7.639  1.00  0.00     0.012 A 
BRANCH  15  18
ATOM     18  O5  UNK     1      43.704  12.237 -10.606  1.00  0.00    -0.361 OA
ATOM     19  H12 UNK     1      44.022  12.426 -11.505  1.00  0.00     0.217 HD
ENDBRANCH  15  18
ENDBRANCH   3  12
BRANCH   8  20
ATOM     20  O3  UNK     1      51.843   9.069  -4.554  1.00  0.00    -0.360 OA
ATOM     21  H10 UNK     1      51.866   8.406  -3.845  1.00  0.00     0.217 HD
ENDBRANCH   8  20
BRANCH  11  22
ATOM     22  O4  UNK     1      49.642  12.093  -1.630  1.00  0.00    -0.361 OA
ATOM     23  H11 UNK     1      49.936  13.014  -1.742  1.00  0.00     0.217 HD
ENDBRANCH  11  22
TORSDOF 4
ENDMDL
MODEL 14
REMARK VINA RESULT:      -5.3     11.250     13.469
REMARK  4 active torsions:
REMARK  status: ('A' for Active; 'I' for Inactive)
REMARK    1  A    between atoms: O3_3  and  C7_12 
REMARK    2  A    between atoms: O4_4  and  C12_17 
REMARK    3  A    between atoms: O5_5  and  C15_20 
REMARK    4  A    between atoms: C1_6  and  C3_8 
ROOT
ATOM      1  O1  UNK     1      52.096  11.449  -2.548  1.00  0.00    -0.340 OA
ATOM      2  O2  UNK     1      50.933  11.498   1.386  1.00  0.00    -0.292 OA
ATOM      3  C1  UNK     1      50.855  10.851  -2.142  1.00  0.00     0.169 C 
ATOM      4  C2  UNK     1      50.277  11.563  -0.921  1.00  0.00     0.121 C 
ATOM      5  C4  UNK     1      52.696  11.477  -0.184  1.00  0.00     0.076 A 
ATOM      6  C5  UNK     1      51.271  11.489   0.209  1.00  0.00     0.167 C 
ATOM      7  C6  UNK     1      53.027  11.480  -1.542  1.00  0.00     0.089 A 
ATOM      8  C7  UNK     1      53.699  11.506   0.787  1.00  0.00     0.085 A 
ATOM      9  C8  UNK     1      54.366  11.548  -1.929  1.00  0.00     0.074 A 
ATOM     10  C11 UNK     1      55.037  11.551   0.394  1.00  0.00     0.074 A 
ATOM     11  C12 UNK     1      55.371  11.578  -0.961  1.00  0.00     0.071 A 
ENDROOT
BRANCH   3  12
ATOM     12  C3  UNK     1      49.893  10.904  -3.311  1.00  0.00    -0.028 A 
ATOM     13  C9  UNK     1      48.907  11.889  -3.356  1.00  0.00     0.012 A 
ATOM     14  C13 UNK     1      48.021  11.938  -4.433  1.00  0.00     0.037 A 
ATOM     15  C15 UNK     1      48.122  11.003  -5.463  1.00  0.00     0.065 A 
ATOM     16  C14 UNK     1      49.110  10.018  -5.416  1.00  0.00     0.037 A 
ATOM     17  C10 UNK     1      49.996   9.970  -4.340  1.00  0.00     0.012 A 
BRANCH  15  18
ATOM     18  O5  UNK     1      47.258  11.050  -6.513  1.00  0.00    -0.361 OA
ATOM     19  H12 UNK     1      46.376  10.778  -6.208  1.00  0.00     0.217 HD
ENDBRANCH  15  18
ENDBRANCH   3  12
BRANCH   8  20
ATOM     20  O3  UNK     1      53.431  11.499   2.123  1.00  0.00    -0.360 OA
ATOM     21  H10 UNK     1      54.104  10.974   2.587  1.00  0.00     0.217 HD
ENDBRANCH   8  20
BRANCH  11  22
ATOM     22  O4  UNK     1      56.678  11.631  -1.338  1.00  0.00    -0.361 OA
ATOM     23  H11 UNK     1      57.236  11.639  -0.542  1.00  0.00     0.217 HD
ENDBRANCH  11  22
TORSDOF 4
ENDMDL
MODEL 15
REMARK VINA RESULT:      -5.1     11.656     13.909
REMARK  4 active torsions:
REMARK  status: ('A' for Active; 'I' for Inactive)
REMARK    1  A    between atoms: O3_3  and  C7_12 
REMARK    2  A    between atoms: O4_4  and  C12_17 
REMARK    3  A    between atoms: O5_5  and  C15_20 
REMARK    4  A    between atoms: C1_6  and  C3_8 
ROOT
ATOM      1  O1  UNK     1      40.725  14.416 -13.829  1.00  0.00    -0.340 OA
ATOM      2  O2  UNK     1      40.542  10.911 -11.707  1.00  0.00    -0.292 OA
ATOM      3  C1  UNK     1      41.248  14.339 -12.494  1.00  0.00     0.169 C 
ATOM      4  C2  UNK     1      41.747  12.930 -12.182  1.00  0.00     0.121 C 
ATOM      5  C4  UNK     1      39.599  12.305 -13.363  1.00  0.00     0.076 A 
ATOM      6  C5  UNK     1      40.607  11.957 -12.340  1.00  0.00     0.167 C 
ATOM      7  C6  UNK     1      39.728  13.506 -14.066  1.00  0.00     0.089 A 
ATOM      8  C7  UNK     1      38.554  11.425 -13.655  1.00  0.00     0.085 A 
ATOM      9  C8  UNK     1      38.829  13.812 -15.088  1.00  0.00     0.074 A 
ATOM     10  C11 UNK     1      37.645  11.746 -14.664  1.00  0.00     0.074 A 
ATOM     11  C12 UNK     1      37.785  12.934 -15.383  1.00  0.00     0.071 A 
ENDROOT
BRANCH   3  12
ATOM     12  C3  UNK     1      42.362  15.356 -12.356  1.00  0.00    -0.028 A 
ATOM     13  C9  UNK     1      42.876  15.983 -13.491  1.00  0.00     0.012 A 
ATOM     14  C13 UNK     1      43.902  16.920 -13.364  1.00  0.00     0.037 A 
ATOM     15  C15 UNK     1      44.413  17.229 -12.104  1.00  0.00     0.065 A 
ATOM     16  C14 UNK     1      43.898  16.600 -10.969  1.00  0.00     0.037 A 
ATOM     17  C10 UNK     1      42.872  15.664 -11.096  1.00  0.00     0.012 A 
BRANCH  15  18
ATOM     18  O5  UNK     1      45.414  18.142 -11.980  1.00  0.00    -0.361 OA
ATOM     19  H12 UNK     1      45.024  19.018 -11.819  1.00  0.00     0.217 HD
ENDBRANCH  15  18
ENDBRANCH   3  12
BRANCH   8  20
ATOM     20  O3  UNK     1      38.379  10.245 -12.998  1.00  0.00    -0.360 OA
ATOM     21  H10 UNK     1      38.882   9.545 -13.446  1.00  0.00     0.217 HD
ENDBRANCH   8  20
BRANCH  11  22
ATOM     22  O4  UNK     1      36.900  13.238 -16.372  1.00  0.00    -0.361 OA
ATOM     23  H11 UNK     1      36.130  13.685 -15.979  1.00  0.00     0.217 HD
ENDBRANCH  11  22
TORSDOF 4
ENDMDL
MODEL 16
REMARK VINA RESULT:      -5.1     10.483     12.023
REMARK  4 active torsions:
REMARK  status: ('A' for Active; 'I' for Inactive)
REMARK    1  A    between atoms: O3_3  and  C7_12 
REMARK    2  A    between atoms: O4_4  and  C12_17 
REMARK    3  A    between atoms: O5_5  and  C15_20 
REMARK    4  A    between atoms: C1_6  and  C3_8 
ROOT
ATOM      1  O1  UNK     1      47.950  10.972  -6.499  1.00  0.00    -0.340 OA
ATOM      2  O2  UNK     1      50.705  13.957  -7.066  1.00  0.00    -0.292 OA
ATOM      3  C1  UNK     1      47.641  12.110  -7.318  1.00  0.00     0.169 C 
ATOM      4  C2  UNK     1      48.899  12.669  -7.979  1.00  0.00     0.121 C 
ATOM      5  C4  UNK     1      49.847  12.259  -5.669  1.00  0.00     0.076 A 
ATOM      6  C5  UNK     1      49.883  13.065  -6.908  1.00  0.00     0.167 C 
ATOM      7  C6  UNK     1      48.895  11.243  -5.545  1.00  0.00     0.089 A 
ATOM      8  C7  UNK     1      50.779  12.482  -4.652  1.00  0.00     0.085 A 
ATOM      9  C8  UNK     1      48.898  10.424  -4.415  1.00  0.00     0.074 A 
ATOM     10  C11 UNK     1      50.764  11.673  -3.515  1.00  0.00     0.074 A 
ATOM     11  C12 UNK     1      49.830  10.643  -3.398  1.00  0.00     0.071 A 
ENDROOT
BRANCH   3  12
ATOM     12  C3  UNK     1      46.620  11.690  -8.356  1.00  0.00    -0.028 A 
ATOM     13  C9  UNK     1      46.981  11.632  -9.702  1.00  0.00     0.012 A 
ATOM     14  C13 UNK     1      46.041  11.245 -10.658  1.00  0.00     0.037 A 
ATOM     15  C15 UNK     1      44.743  10.916 -10.268  1.00  0.00     0.065 A 
ATOM     16  C14 UNK     1      44.384  10.975  -8.921  1.00  0.00     0.037 A 
ATOM     17  C10 UNK     1      45.324  11.362  -7.965  1.00  0.00     0.012 A 
BRANCH  15  18
ATOM     18  O5  UNK     1      43.827  10.539 -11.201  1.00  0.00    -0.361 OA
ATOM     19  H12 UNK     1      42.935  10.646 -10.828  1.00  0.00     0.217 HD
ENDBRANCH  15  18
ENDBRANCH   3  12
BRANCH   8  20
ATOM     20  O3  UNK     1      51.724  13.461  -4.721  1.00  0.00    -0.360 OA
ATOM     21  H10 UNK     1      52.296  13.308  -5.491  1.00  0.00     0.217 HD
ENDBRANCH   8  20
BRANCH  11  22
ATOM     22  O4  UNK     1      49.825   9.852  -2.290  1.00  0.00    -0.361 OA
ATOM     23  H11 UNK     1      50.734   9.559  -2.108  1.00  0.00     0.217 HD
ENDBRANCH  11  22
TORSDOF 4
ENDMDL
MODEL 17
REMARK VINA RESULT:      -5.1     11.107     13.342
REMARK  4 active torsions:
REMARK  status: ('A' for Active; 'I' for Inactive)
REMARK    1  A    between atoms: O3_3  and  C7_12 
REMARK    2  A    between atoms: O4_4  and  C12_17 
REMARK    3  A    between atoms: O5_5  and  C15_20 
REMARK    4  A    between atoms: C1_6  and  C3_8 
ROOT
ATOM      1  O1  UNK     1      44.569  12.864 -10.610  1.00  0.00    -0.340 OA
ATOM      2  O2  UNK     1      41.294  11.269 -12.494  1.00  0.00    -0.292 OA
ATOM      3  C1  UNK     1      44.157  13.346 -11.898  1.00  0.00     0.169 C 
ATOM      4  C2  UNK     1      42.647  13.205 -12.079  1.00  0.00     0.121 C 
ATOM      5  C4  UNK     1      43.099  10.960 -11.005  1.00  0.00     0.076 A 
ATOM      6  C5  UNK     1      42.267  11.755 -11.932  1.00  0.00     0.167 C 
ATOM      7  C6  UNK     1      44.191  11.567 -10.379  1.00  0.00     0.089 A 
ATOM      8  C7  UNK     1      42.774   9.630 -10.724  1.00  0.00     0.085 A 
ATOM      9  C8  UNK     1      44.940  10.853  -9.443  1.00  0.00     0.074 A 
ATOM     10  C11 UNK     1      43.539   8.914  -9.803  1.00  0.00     0.074 A 
ATOM     11  C12 UNK     1      44.617   9.525  -9.160  1.00  0.00     0.071 A 
ENDROOT
BRANCH   3  12
ATOM     12  C3  UNK     1      44.590  14.791 -12.031  1.00  0.00    -0.028 A 
ATOM     13  C9  UNK     1      43.755  15.812 -11.579  1.00  0.00     0.012 A 
ATOM     14  C13 UNK     1      44.154  17.144 -11.700  1.00  0.00     0.037 A 
ATOM     15  C15 UNK     1      45.387  17.453 -12.273  1.00  0.00     0.065 A 
ATOM     16  C14 UNK     1      46.223  16.430 -12.725  1.00  0.00     0.037 A 
ATOM     17  C10 UNK     1      45.824  15.099 -12.602  1.00  0.00     0.012 A 
BRANCH  15  18
ATOM     18  O5  UNK     1      45.777  18.751 -12.392  1.00  0.00    -0.361 OA
ATOM     19  H12 UNK     1      46.595  18.789 -12.916  1.00  0.00     0.217 HD
ENDBRANCH  15  18
ENDBRANCH   3  12
BRANCH   8  20
ATOM     20  O3  UNK     1      41.724   8.989 -11.309  1.00  0.00    -0.360 OA
ATOM     21  H10 UNK     1      41.816   9.029 -12.276  1.00  0.00     0.217 HD
ENDBRANCH   8  20
BRANCH  11  22
ATOM     22  O4  UNK     1      45.355   8.824  -8.256  1.00  0.00    -0.361 OA
ATOM     23  H11 UNK     1      46.278   8.789  -8.562  1.00  0.00     0.217 HD
ENDBRANCH  11  22
TORSDOF 4
ENDMDL
MODEL 18
REMARK VINA RESULT:      -5.1     10.423     12.947
REMARK  4 active torsions:
REMARK  status: ('A' for Active; 'I' for Inactive)
REMARK    1  A    between atoms: O3_3  and  C7_12 
REMARK    2  A    between atoms: O4_4  and  C12_17 
REMARK    3  A    between atoms: O5_5  and  C15_20 
REMARK    4  A    between atoms: C1_6  and  C3_8 
ROOT
ATOM      1  O1  UNK     1      47.635  10.863  -7.575  1.00  0.00    -0.340 OA
ATOM      2  O2  UNK     1      51.319   9.911  -9.105  1.00  0.00    -0.292 OA
ATOM      3  C1  UNK     1      48.834  11.181  -6.852  1.00  0.00     0.169 C 
ATOM      4  C2  UNK     1      49.999  11.435  -7.806  1.00  0.00     0.121 C 
ATOM      5  C4  UNK     1      49.018   9.405  -8.955  1.00  0.00     0.076 A 
ATOM      6  C5  UNK     1      50.222  10.205  -8.648  1.00  0.00     0.167 C 
ATOM      7  C6  UNK     1      47.788   9.794  -8.418  1.00  0.00     0.089 A 
ATOM      8  C7  UNK     1      49.100   8.300  -9.806  1.00  0.00     0.085 A 
ATOM      9  C8  UNK     1      46.630   9.095  -8.761  1.00  0.00     0.074 A 
ATOM     10  C11 UNK     1      47.942   7.592 -10.128  1.00  0.00     0.074 A 
ATOM     11  C12 UNK     1      46.708   7.991  -9.612  1.00  0.00     0.071 A 
ENDROOT
BRANCH   3  12
ATOM     12  C3  UNK     1      48.564  12.394  -5.986  1.00  0.00    -0.028 A 
ATOM     13  C9  UNK     1      48.894  13.667  -6.449  1.00  0.00     0.012 A 
ATOM     14  C13 UNK     1      48.645  14.785  -5.651  1.00  0.00     0.037 A 
ATOM     15  C15 UNK     1      48.066  14.628  -4.392  1.00  0.00     0.065 A 
ATOM     16  C14 UNK     1      47.736  13.353  -3.930  1.00  0.00     0.037 A 
ATOM     17  C10 UNK     1      47.984  12.237  -4.728  1.00  0.00     0.012 A 
BRANCH  15  18
ATOM     18  O5  UNK     1      47.823  15.718  -3.614  1.00  0.00    -0.361 OA
ATOM     19  H12 UNK     1      46.865  15.877  -3.584  1.00  0.00     0.217 HD
ENDBRANCH  15  18
ENDBRANCH   3  12
BRANCH   8  20
ATOM     20  O3  UNK     1      50.274   7.876 -10.352  1.00  0.00    -0.360 OA
ATOM     21  H10 UNK     1      50.104   7.127 -10.946  1.00  0.00     0.217 HD
ENDBRANCH   8  20
BRANCH  11  22
ATOM     22  O4  UNK     1      45.580   7.301  -9.936  1.00  0.00    -0.361 OA
ATOM     23  H11 UNK     1      44.914   7.926 -10.273  1.00  0.00     0.217 HD
ENDBRANCH  11  22
TORSDOF 4
ENDMDL
