MODEL 1
REMARK VINA RESULT:      -7.4      0.000      0.000
REMARK  4 active torsions:
REMARK  status: ('A' for Active; 'I' for Inactive)
REMARK    1  A    between atoms: O3_3  and  C7_12 
REMARK    2  A    between atoms: O4_4  and  C12_17 
REMARK    3  A    between atoms: O5_5  and  C15_20 
REMARK    4  A    between atoms: C1_6  and  C3_8 
ROOT
ATOM      1  O1  UNK     1      39.876  15.482  -0.016  1.00  0.00    -0.340 OA
ATOM      2  O2  UNK     1      41.288  16.410  -3.753  1.00  0.00    -0.292 OA
ATOM      3  C1  UNK     1      40.071  14.457  -1.002  1.00  0.00     0.169 C 
ATOM      4  C2  UNK     1      41.205  14.823  -1.957  1.00  0.00     0.121 C 
ATOM      5  C4  UNK     1      40.077  17.084  -1.842  1.00  0.00     0.076 A 
ATOM      6  C5  UNK     1      40.875  16.127  -2.636  1.00  0.00     0.167 C 
ATOM      7  C6  UNK     1      39.641  16.715  -0.567  1.00  0.00     0.089 A 
ATOM      8  C7  UNK     1      39.797  18.359  -2.342  1.00  0.00     0.085 A 
ATOM      9  C8  UNK     1      38.953  17.635   0.225  1.00  0.00     0.074 A 
ATOM     10  C11 UNK     1      39.090  19.268  -1.554  1.00  0.00     0.074 A 
ATOM     11  C12 UNK     1      38.674  18.909  -0.271  1.00  0.00     0.071 A 
ENDROOT
BRANCH   3  12
ATOM     12  C3  UNK     1      40.359  13.153  -0.287  1.00  0.00    -0.028 A 
ATOM     13  C9  UNK     1      40.027  13.010   1.060  1.00  0.00     0.012 A 
ATOM     14  C13 UNK     1      40.292  11.809   1.719  1.00  0.00     0.037 A 
ATOM     15  C15 UNK     1      40.888  10.752   1.031  1.00  0.00     0.065 A 
ATOM     16  C14 UNK     1      41.219  10.896  -0.318  1.00  0.00     0.037 A 
ATOM     17  C10 UNK     1      40.953  12.097  -0.976  1.00  0.00     0.012 A 
BRANCH  15  18
ATOM     18  O5  UNK     1      41.146   9.581   1.673  1.00  0.00    -0.361 OA
ATOM     19  H12 UNK     1      41.167   8.861   1.020  1.00  0.00     0.217 HD
ENDBRANCH  15  18
ENDBRANCH   3  12
BRANCH   8  20
ATOM     20  O3  UNK     1      40.194  18.768  -3.579  1.00  0.00    -0.360 OA
ATOM     21  H10 UNK     1      40.840  18.138  -3.939  1.00  0.00     0.217 HD
ENDBRANCH   8  20
BRANCH  11  22
ATOM     22  O4  UNK     1      37.991  19.803   0.497  1.00  0.00    -0.361 OA
ATOM     23  H11 UNK     1      38.550  20.064   1.249  1.00  0.00     0.217 HD
ENDBRANCH  11  22
TORSDOF 4
ENDMDL
MODEL 2
REMARK VINA RESULT:      -7.4      0.040      1.081
REMARK  4 active torsions:
REMARK  status: ('A' for Active; 'I' for Inactive)
REMARK    1  A    between atoms: O3_3  and  C7_12 
REMARK    2  A    between atoms: O4_4  and  C12_17 
REMARK    3  A    between atoms: O5_5  and  C15_20 
REMARK    4  A    between atoms: C1_6  and  C3_8 
ROOT
ATOM      1  O1  UNK     1      39.869  15.505   0.009  1.00  0.00    -0.340 OA
ATOM      2  O2  UNK     1      41.263  16.446  -3.732  1.00  0.00    -0.292 OA
ATOM      3  C1  UNK     1      40.058  14.484  -0.982  1.00  0.00     0.169 C 
ATOM      4  C2  UNK     1      41.187  14.852  -1.941  1.00  0.00     0.121 C 
ATOM      5  C4  UNK     1      40.062  17.114  -1.813  1.00  0.00     0.076 A 
ATOM      6  C5  UNK     1      40.855  16.159  -2.614  1.00  0.00     0.167 C 
ATOM      7  C6  UNK     1      39.633  16.740  -0.536  1.00  0.00     0.089 A 
ATOM      8  C7  UNK     1      39.781  18.391  -2.306  1.00  0.00     0.085 A 
ATOM      9  C8  UNK     1      38.950  17.658   0.263  1.00  0.00     0.074 A 
ATOM     10  C11 UNK     1      39.079  19.298  -1.511  1.00  0.00     0.074 A 
ATOM     11  C12 UNK     1      38.669  18.935  -0.227  1.00  0.00     0.071 A 
ENDROOT
BRANCH   3  12
ATOM     12  C3  UNK     1      40.348  13.177  -0.273  1.00  0.00    -0.028 A 
ATOM     13  C9  UNK     1      40.935  12.122  -0.972  1.00  0.00     0.012 A 
ATOM     14  C13 UNK     1      41.202  10.918  -0.319  1.00  0.00     0.037 A 
ATOM     15  C15 UNK     1      40.884  10.770   1.030  1.00  0.00     0.065 A 
ATOM     16  C14 UNK     1      40.297  11.827   1.728  1.00  0.00     0.037 A 
ATOM     17  C10 UNK     1      40.030  13.030   1.076  1.00  0.00     0.012 A 
BRANCH  15  18
ATOM     18  O5  UNK     1      41.145   9.596   1.667  1.00  0.00    -0.361 OA
ATOM     19  H12 UNK     1      41.832   9.747   2.338  1.00  0.00     0.217 HD
ENDBRANCH  15  18
ENDBRANCH   3  12
BRANCH   8  20
ATOM     20  O3  UNK     1      40.172  18.804  -3.544  1.00  0.00    -0.360 OA
ATOM     21  H10 UNK     1      39.639  19.571  -3.813  1.00  0.00     0.217 HD
ENDBRANCH   8  20
BRANCH  11  22
ATOM     22  O4  UNK     1      37.992  19.826   0.548  1.00  0.00    -0.361 OA
ATOM     23  H11 UNK     1      37.083  19.503   0.679  1.00  0.00     0.217 HD
ENDBRANCH  11  22
TORSDOF 4
ENDMDL
MODEL 3
REMARK VINA RESULT:      -7.4      2.423      7.058
REMARK  4 active torsions:
REMARK  status: ('A' for Active; 'I' for Inactive)
REMARK    1  A    between atoms: O3_3  and  C7_12 
REMARK    2  A    between atoms: O4_4  and  C12_17 
REMARK    3  A    between atoms: O5_5  and  C15_20 
REMARK    4  A    between atoms: C1_6  and  C3_8 
ROOT
ATOM      1  O1  UNK     1      40.410  17.048  -1.013  1.00  0.00    -0.340 OA
ATOM      2  O2  UNK     1      36.898  14.969  -0.595  1.00  0.00    -0.292 OA
ATOM      3  C1  UNK     1      39.147  17.684  -1.261  1.00  0.00     0.169 C 
ATOM      4  C2  UNK     1      38.044  17.068  -0.402  1.00  0.00     0.121 C 
ATOM      5  C4  UNK     1      39.204  14.931  -1.101  1.00  0.00     0.076 A 
ATOM      6  C5  UNK     1      37.943  15.597  -0.713  1.00  0.00     0.167 C 
ATOM      7  C6  UNK     1      40.371  15.692  -1.208  1.00  0.00     0.089 A 
ATOM      8  C7  UNK     1      39.238  13.551  -1.318  1.00  0.00     0.085 A 
ATOM      9  C8  UNK     1      41.584  15.065  -1.498  1.00  0.00     0.074 A 
ATOM     10  C11 UNK     1      40.450  12.933  -1.629  1.00  0.00     0.074 A 
ATOM     11  C12 UNK     1      41.622  13.687  -1.713  1.00  0.00     0.071 A 
ENDROOT
BRANCH   3  12
ATOM     12  C3  UNK     1      39.293  19.166  -0.979  1.00  0.00    -0.028 A 
ATOM     13  C9  UNK     1      38.641  19.734   0.114  1.00  0.00     0.012 A 
ATOM     14  C13 UNK     1      38.776  21.099   0.373  1.00  0.00     0.037 A 
ATOM     15  C15 UNK     1      39.563  21.892  -0.460  1.00  0.00     0.065 A 
ATOM     16  C14 UNK     1      40.215  21.322  -1.555  1.00  0.00     0.037 A 
ATOM     17  C10 UNK     1      40.081  19.958  -1.813  1.00  0.00     0.012 A 
BRANCH  15  18
ATOM     18  O5  UNK     1      39.695  23.223  -0.208  1.00  0.00    -0.361 OA
ATOM     19  H12 UNK     1      39.201  23.722  -0.881  1.00  0.00     0.217 HD
ENDBRANCH  15  18
ENDBRANCH   3  12
BRANCH   8  20
ATOM     20  O3  UNK     1      38.130  12.764  -1.232  1.00  0.00    -0.360 OA
ATOM     21  H10 UNK     1      37.478  13.183  -0.645  1.00  0.00     0.217 HD
ENDBRANCH   8  20
BRANCH  11  22
ATOM     22  O4  UNK     1      42.803  13.077  -2.009  1.00  0.00    -0.361 OA
ATOM     23  H11 UNK     1      43.331  13.670  -2.572  1.00  0.00     0.217 HD
ENDBRANCH  11  22
TORSDOF 4
ENDMDL
MODEL 4
REMARK VINA RESULT:      -7.1      1.304      2.816
REMARK  4 active torsions:
REMARK  status: ('A' for Active; 'I' for Inactive)
REMARK    1  A    between atoms: O3_3  and  C7_12 
REMARK    2  A    between atoms: O4_4  and  C12_17 
REMARK    3  A    between atoms: O5_5  and  C15_20 
REMARK    4  A    between atoms: C1_6  and  C3_8 
ROOT
ATOM      1  O1  UNK     1      40.479  15.169  -2.034  1.00  0.00    -0.340 OA
ATOM      2  O2  UNK     1      38.812  18.107   0.293  1.00  0.00    -0.292 OA
ATOM      3  C1  UNK     1      40.534  15.089  -0.602  1.00  0.00     0.169 C 
ATOM      4  C2  UNK     1      39.327  15.778   0.032  1.00  0.00     0.121 C 
ATOM      5  C4  UNK     1      39.846  17.505  -1.742  1.00  0.00     0.076 A 
ATOM      6  C5  UNK     1      39.303  17.223  -0.398  1.00  0.00     0.167 C 
ATOM      7  C6  UNK     1      40.384  16.457  -2.494  1.00  0.00     0.089 A 
ATOM      8  C7  UNK     1      39.785  18.796  -2.274  1.00  0.00     0.085 A 
ATOM      9  C8  UNK     1      40.830  16.693  -3.795  1.00  0.00     0.074 A 
ATOM     10  C11 UNK     1      40.252  19.030  -3.568  1.00  0.00     0.074 A 
ATOM     11  C12 UNK     1      40.768  17.981  -4.330  1.00  0.00     0.071 A 
ENDROOT
BRANCH   3  12
ATOM     12  C3  UNK     1      40.598  13.629  -0.205  1.00  0.00    -0.028 A 
ATOM     13  C9  UNK     1      40.154  13.229   1.055  1.00  0.00     0.012 A 
ATOM     14  C13 UNK     1      40.213  11.884   1.420  1.00  0.00     0.037 A 
ATOM     15  C15 UNK     1      40.717  10.940   0.526  1.00  0.00     0.065 A 
ATOM     16  C14 UNK     1      41.161  11.341  -0.735  1.00  0.00     0.037 A 
ATOM     17  C10 UNK     1      41.101  12.686  -1.100  1.00  0.00     0.012 A 
BRANCH  15  18
ATOM     18  O5  UNK     1      40.775   9.628   0.882  1.00  0.00    -0.361 OA
ATOM     19  H12 UNK     1      40.056   9.148   0.437  1.00  0.00     0.217 HD
ENDBRANCH  15  18
ENDBRANCH   3  12
BRANCH   8  20
ATOM     20  O3  UNK     1      39.276  19.853  -1.584  1.00  0.00    -0.360 OA
ATOM     21  H10 UNK     1      38.589  19.542  -0.971  1.00  0.00     0.217 HD
ENDBRANCH   8  20
BRANCH  11  22
ATOM     22  O4  UNK     1      41.215  18.213  -5.594  1.00  0.00    -0.361 OA
ATOM     23  H11 UNK     1      41.303  19.174  -5.726  1.00  0.00     0.217 HD
ENDBRANCH  11  22
TORSDOF 4
ENDMDL
MODEL 5
REMARK VINA RESULT:      -6.4      1.563      6.691
REMARK  4 active torsions:
REMARK  status: ('A' for Active; 'I' for Inactive)
REMARK    1  A    between atoms: O3_3  and  C7_12 
REMARK    2  A    between atoms: O4_4  and  C12_17 
REMARK    3  A    between atoms: O5_5  and  C15_20 
REMARK    4  A    between atoms: C1_6  and  C3_8 
ROOT
ATOM      1  O1  UNK     1      40.151  14.013   0.667  1.00  0.00    -0.340 OA
ATOM      2  O2  UNK     1      41.606  10.599  -1.080  1.00  0.00    -0.292 OA
ATOM      3  C1  UNK     1      40.988  14.084  -0.498  1.00  0.00     0.169 C 
ATOM      4  C2  UNK     1      40.815  12.845  -1.373  1.00  0.00     0.121 C 
ATOM      5  C4  UNK     1      40.881  11.697   0.880  1.00  0.00     0.076 A 
ATOM      6  C5  UNK     1      41.167  11.621  -0.567  1.00  0.00     0.167 C 
ATOM      7  C6  UNK     1      40.368  12.883   1.412  1.00  0.00     0.089 A 
ATOM      8  C7  UNK     1      41.081  10.584   1.701  1.00  0.00     0.085 A 
ATOM      9  C8  UNK     1      40.022  12.946   2.762  1.00  0.00     0.074 A 
ATOM     10  C11 UNK     1      40.752  10.659   3.055  1.00  0.00     0.074 A 
ATOM     11  C12 UNK     1      40.218  11.835   3.584  1.00  0.00     0.071 A 
ENDROOT
BRANCH   3  12
ATOM     12  C3  UNK     1      40.639  15.345  -1.262  1.00  0.00    -0.028 A 
ATOM     13  C9  UNK     1      39.938  16.371  -0.629  1.00  0.00     0.012 A 
ATOM     14  C13 UNK     1      39.617  17.532  -1.333  1.00  0.00     0.037 A 
ATOM     15  C15 UNK     1      39.997  17.666  -2.668  1.00  0.00     0.065 A 
ATOM     16  C14 UNK     1      40.699  16.639  -3.300  1.00  0.00     0.037 A 
ATOM     17  C10 UNK     1      41.020  15.479  -2.596  1.00  0.00     0.012 A 
BRANCH  15  18
ATOM     18  O5  UNK     1      39.683  18.799  -3.354  1.00  0.00    -0.361 OA
ATOM     19  H12 UNK     1      39.214  18.553  -4.170  1.00  0.00     0.217 HD
ENDBRANCH  15  18
ENDBRANCH   3  12
BRANCH   8  20
ATOM     20  O3  UNK     1      41.582   9.406   1.236  1.00  0.00    -0.360 OA
ATOM     21  H10 UNK     1      41.948   9.537   0.346  1.00  0.00     0.217 HD
ENDBRANCH   8  20
BRANCH  11  22
ATOM     22  O4  UNK     1      39.892  11.900   4.904  1.00  0.00    -0.361 OA
ATOM     23  H11 UNK     1      39.151  12.521   5.016  1.00  0.00     0.217 HD
ENDBRANCH  11  22
TORSDOF 4
ENDMDL
MODEL 6
REMARK VINA RESULT:      -6.2      1.544      6.701
REMARK  4 active torsions:
REMARK  status: ('A' for Active; 'I' for Inactive)
REMARK    1  A    between atoms: O3_3  and  C7_12 
REMARK    2  A    between atoms: O4_4  and  C12_17 
REMARK    3  A    between atoms: O5_5  and  C15_20 
REMARK    4  A    between atoms: C1_6  and  C3_8 
ROOT
ATOM      1  O1  UNK     1      39.747  14.201   0.275  1.00  0.00    -0.340 OA
ATOM      2  O2  UNK     1      42.031  12.145  -2.443  1.00  0.00    -0.292 OA
ATOM      3  C1  UNK     1      40.651  14.895  -0.598  1.00  0.00     0.169 C 
ATOM      4  C2  UNK     1      40.819  14.149  -1.920  1.00  0.00     0.121 C 
ATOM      5  C4  UNK     1      40.921  12.160  -0.359  1.00  0.00     0.076 A 
ATOM      6  C5  UNK     1      41.344  12.764  -1.639  1.00  0.00     0.167 C 
ATOM      7  C6  UNK     1      40.127  12.906   0.516  1.00  0.00     0.089 A 
ATOM      8  C7  UNK     1      41.274  10.845  -0.045  1.00  0.00     0.085 A 
ATOM      9  C8  UNK     1      39.656  12.323   1.693  1.00  0.00     0.074 A 
ATOM     10  C11 UNK     1      40.818  10.274   1.143  1.00  0.00     0.074 A 
ATOM     11  C12 UNK     1      40.005  11.009   2.008  1.00  0.00     0.071 A 
ENDROOT
BRANCH   3  12
ATOM     12  C3  UNK     1      40.116  16.294  -0.826  1.00  0.00    -0.028 A 
ATOM     13  C9  UNK     1      40.329  16.930  -2.049  1.00  0.00     0.012 A 
ATOM     14  C13 UNK     1      39.837  18.219  -2.258  1.00  0.00     0.037 A 
ATOM     15  C15 UNK     1      39.133  18.870  -1.246  1.00  0.00     0.065 A 
ATOM     16  C14 UNK     1      38.921  18.233  -0.023  1.00  0.00     0.037 A 
ATOM     17  C10 UNK     1      39.412  16.944   0.186  1.00  0.00     0.012 A 
BRANCH  15  18
ATOM     18  O5  UNK     1      38.653  20.127  -1.451  1.00  0.00    -0.361 OA
ATOM     19  H12 UNK     1      37.683  20.108  -1.389  1.00  0.00     0.217 HD
ENDBRANCH  15  18
ENDBRANCH   3  12
BRANCH   8  20
ATOM     20  O3  UNK     1      42.050  10.077  -0.860  1.00  0.00    -0.360 OA
ATOM     21  H10 UNK     1      42.032   9.155  -0.552  1.00  0.00     0.217 HD
ENDBRANCH   8  20
BRANCH  11  22
ATOM     22  O4  UNK     1      39.556  10.444   3.163  1.00  0.00    -0.361 OA
ATOM     23  H11 UNK     1      39.641   9.477   3.095  1.00  0.00     0.217 HD
ENDBRANCH  11  22
TORSDOF 4
ENDMDL
MODEL 7
REMARK VINA RESULT:      -6.1      1.616      6.531
REMARK  4 active torsions:
REMARK  status: ('A' for Active; 'I' for Inactive)
REMARK    1  A    between atoms: O3_3  and  C7_12 
REMARK    2  A    between atoms: O4_4  and  C12_17 
REMARK    3  A    between atoms: O5_5  and  C15_20 
REMARK    4  A    between atoms: C1_6  and  C3_8 
ROOT
ATOM      1  O1  UNK     1      39.351  15.189  -0.361  1.00  0.00    -0.340 OA
ATOM      2  O2  UNK     1      42.529  14.522  -2.867  1.00  0.00    -0.292 OA
ATOM      3  C1  UNK     1      40.281  16.241  -0.663  1.00  0.00     0.169 C 
ATOM      4  C2  UNK     1      40.877  16.061  -2.058  1.00  0.00     0.121 C 
ATOM      5  C4  UNK     1      40.999  13.653  -1.293  1.00  0.00     0.076 A 
ATOM      6  C5  UNK     1      41.577  14.728  -2.126  1.00  0.00     0.167 C 
ATOM      7  C6  UNK     1      39.904  13.940  -0.474  1.00  0.00     0.089 A 
ATOM      8  C7  UNK     1      41.514  12.355  -1.355  1.00  0.00     0.085 A 
ATOM      9  C8  UNK     1      39.300  12.918   0.260  1.00  0.00     0.074 A 
ATOM     10  C11 UNK     1      40.918  11.342  -0.603  1.00  0.00     0.074 A 
ATOM     11  C12 UNK     1      39.810  11.620   0.198  1.00  0.00     0.071 A 
ENDROOT
BRANCH   3  12
ATOM     12  C3  UNK     1      39.558  17.567  -0.545  1.00  0.00    -0.028 A 
ATOM     13  C9  UNK     1      39.745  18.550  -1.517  1.00  0.00     0.012 A 
ATOM     14  C13 UNK     1      39.079  19.772  -1.408  1.00  0.00     0.037 A 
ATOM     15  C15 UNK     1      38.228  20.009  -0.330  1.00  0.00     0.065 A 
ATOM     16  C14 UNK     1      38.042  19.024   0.642  1.00  0.00     0.037 A 
ATOM     17  C10 UNK     1      38.707  17.803   0.532  1.00  0.00     0.012 A 
BRANCH  15  18
ATOM     18  O5  UNK     1      37.579  21.200  -0.224  1.00  0.00    -0.361 OA
ATOM     19  H12 UNK     1      37.334  21.344   0.706  1.00  0.00     0.217 HD
ENDBRANCH  15  18
ENDBRANCH   3  12
BRANCH   8  20
ATOM     20  O3  UNK     1      42.581  12.023  -2.133  1.00  0.00    -0.360 OA
ATOM     21  H10 UNK     1      42.644  11.056  -2.203  1.00  0.00     0.217 HD
ENDBRANCH   8  20
BRANCH  11  22
ATOM     22  O4  UNK     1      39.228  10.626   0.923  1.00  0.00    -0.361 OA
ATOM     23  H11 UNK     1      39.924  10.041   1.272  1.00  0.00     0.217 HD
ENDBRANCH  11  22
TORSDOF 4
ENDMDL
MODEL 8
REMARK VINA RESULT:      -5.6     10.124     12.977
REMARK  4 active torsions:
REMARK  status: ('A' for Active; 'I' for Inactive)
REMARK    1  A    between atoms: O3_3  and  C7_12 
REMARK    2  A    between atoms: O4_4  and  C12_17 
REMARK    3  A    between atoms: O5_5  and  C15_20 
REMARK    4  A    between atoms: C1_6  and  C3_8 
ROOT
ATOM      1  O1  UNK     1      48.342   9.748  -6.900  1.00  0.00    -0.340 OA
ATOM      2  O2  UNK     1      45.690   9.928 -10.024  1.00  0.00    -0.292 OA
ATOM      3  C1  UNK     1      47.972  11.010  -7.476  1.00  0.00     0.169 C 
ATOM      4  C2  UNK     1      46.552  10.961  -8.038  1.00  0.00     0.121 C 
ATOM      5  C4  UNK     1      47.357   8.714  -8.876  1.00  0.00     0.076 A 
ATOM      6  C5  UNK     1      46.475   9.881  -9.086  1.00  0.00     0.167 C 
ATOM      7  C6  UNK     1      48.226   8.705  -7.781  1.00  0.00     0.089 A 
ATOM      8  C7  UNK     1      47.294   7.615  -9.736  1.00  0.00     0.085 A 
ATOM      9  C8  UNK     1      49.008   7.578  -7.525  1.00  0.00     0.074 A 
ATOM     10  C11 UNK     1      48.095   6.499  -9.488  1.00  0.00     0.074 A 
ATOM     11  C12 UNK     1      48.947   6.478  -8.382  1.00  0.00     0.071 A 
ENDROOT
BRANCH   3  12
ATOM     12  C3  UNK     1      48.100  12.080  -6.411  1.00  0.00    -0.028 A 
ATOM     13  C9  UNK     1      47.708  11.807  -5.100  1.00  0.00     0.012 A 
ATOM     14  C13 UNK     1      47.827  12.792  -4.119  1.00  0.00     0.037 A 
ATOM     15  C15 UNK     1      48.336  14.047  -4.448  1.00  0.00     0.065 A 
ATOM     16  C14 UNK     1      48.727  14.319  -5.760  1.00  0.00     0.037 A 
ATOM     17  C10 UNK     1      48.610  13.334  -6.741  1.00  0.00     0.012 A 
BRANCH  15  18
ATOM     18  O5  UNK     1      48.451  15.008  -3.491  1.00  0.00    -0.361 OA
ATOM     19  H12 UNK     1      48.424  14.585  -2.616  1.00  0.00     0.217 HD
ENDBRANCH  15  18
ENDBRANCH   3  12
BRANCH   8  20
ATOM     20  O3  UNK     1      46.470   7.574 -10.820  1.00  0.00    -0.360 OA
ATOM     21  H10 UNK     1      46.258   8.479 -11.101  1.00  0.00     0.217 HD
ENDBRANCH   8  20
BRANCH  11  22
ATOM     22  O4  UNK     1      49.720   5.384  -8.140  1.00  0.00    -0.361 OA
ATOM     23  H11 UNK     1      50.015   5.012  -8.989  1.00  0.00     0.217 HD
ENDBRANCH  11  22
TORSDOF 4
ENDMDL
MODEL 9
REMARK VINA RESULT:      -5.6     10.144     13.019
REMARK  4 active torsions:
REMARK  status: ('A' for Active; 'I' for Inactive)
REMARK    1  A    between atoms: O3_3  and  C7_12 
REMARK    2  A    between atoms: O4_4  and  C12_17 
REMARK    3  A    between atoms: O5_5  and  C15_20 
REMARK    4  A    between atoms: C1_6  and  C3_8 
ROOT
ATOM      1  O1  UNK     1      48.354   9.746  -6.896  1.00  0.00    -0.340 OA
ATOM      2  O2  UNK     1      45.773   9.946 -10.078  1.00  0.00    -0.292 OA
ATOM      3  C1  UNK     1      48.011  11.010  -7.484  1.00  0.00     0.169 C 
ATOM      4  C2  UNK     1      46.604  10.975  -8.077  1.00  0.00     0.121 C 
ATOM      5  C4  UNK     1      47.401   8.716  -8.890  1.00  0.00     0.076 A 
ATOM      6  C5  UNK     1      46.537   9.892  -9.123  1.00  0.00     0.167 C 
ATOM      7  C6  UNK     1      48.245   8.700  -7.777  1.00  0.00     0.089 A 
ATOM      8  C7  UNK     1      47.344   7.615  -9.748  1.00  0.00     0.085 A 
ATOM      9  C8  UNK     1      49.010   7.566  -7.501  1.00  0.00     0.074 A 
ATOM     10  C11 UNK     1      48.127   6.491  -9.480  1.00  0.00     0.074 A 
ATOM     11  C12 UNK     1      48.954   6.464  -8.356  1.00  0.00     0.071 A 
ENDROOT
BRANCH   3  12
ATOM     12  C3  UNK     1      48.128  12.081  -6.420  1.00  0.00    -0.028 A 
ATOM     13  C9  UNK     1      48.646  13.334  -6.747  1.00  0.00     0.012 A 
ATOM     14  C13 UNK     1      48.754  14.320  -5.766  1.00  0.00     0.037 A 
ATOM     15  C15 UNK     1      48.345  14.054  -4.460  1.00  0.00     0.065 A 
ATOM     16  C14 UNK     1      47.827  12.799  -4.134  1.00  0.00     0.037 A 
ATOM     17  C10 UNK     1      47.718  11.813  -5.114  1.00  0.00     0.012 A 
BRANCH  15  18
ATOM     18  O5  UNK     1      48.450  15.016  -3.504  1.00  0.00    -0.361 OA
ATOM     19  H12 UNK     1      47.558  15.277  -3.219  1.00  0.00     0.217 HD
ENDBRANCH  15  18
ENDBRANCH   3  12
BRANCH   8  20
ATOM     20  O3  UNK     1      46.543   7.580 -10.849  1.00  0.00    -0.360 OA
ATOM     21  H10 UNK     1      46.315   6.658 -11.057  1.00  0.00     0.217 HD
ENDBRANCH   8  20
BRANCH  11  22
ATOM     22  O4  UNK     1      49.709   5.362  -8.094  1.00  0.00    -0.361 OA
ATOM     23  H11 UNK     1      49.231   4.572  -8.400  1.00  0.00     0.217 HD
ENDBRANCH  11  22
TORSDOF 4
ENDMDL
MODEL 10
REMARK VINA RESULT:      -5.5      9.749     12.132
REMARK  4 active torsions:
REMARK  status: ('A' for Active; 'I' for Inactive)
REMARK    1  A    between atoms: O3_3  and  C7_12 
REMARK    2  A    between atoms: O4_4  and  C12_17 
REMARK    3  A    between atoms: O5_5  and  C15_20 
REMARK    4  A    between atoms: C1_6  and  C3_8 
ROOT
ATOM      1  O1  UNK     1      46.185  11.037  -7.808  1.00  0.00    -0.340 OA
ATOM      2  O2  UNK     1      48.977   9.746 -10.522  1.00  0.00    -0.292 OA
ATOM      3  C1  UNK     1      47.578  10.992  -7.463  1.00  0.00     0.169 C 
ATOM      4  C2  UNK     1      48.456  11.209  -8.694  1.00  0.00     0.121 C 
ATOM      5  C4  UNK     1      46.757   9.642  -9.724  1.00  0.00     0.076 A 
ATOM      6  C5  UNK     1      48.148  10.140  -9.712  1.00  0.00     0.167 C 
ATOM      7  C6  UNK     1      45.848  10.136  -8.784  1.00  0.00     0.089 A 
ATOM      8  C7  UNK     1      46.344   8.721 -10.690  1.00  0.00     0.085 A 
ATOM      9  C8  UNK     1      44.513   9.733  -8.832  1.00  0.00     0.074 A 
ATOM     10  C11 UNK     1      45.012   8.305 -10.720  1.00  0.00     0.074 A 
ATOM     11  C12 UNK     1      44.097   8.814  -9.797  1.00  0.00     0.071 A 
ENDROOT
BRANCH   3  12
ATOM     12  C3  UNK     1      47.845  12.048  -6.410  1.00  0.00    -0.028 A 
ATOM     13  C9  UNK     1      47.584  11.774  -5.068  1.00  0.00     0.012 A 
ATOM     14  C13 UNK     1      47.830  12.746  -4.098  1.00  0.00     0.037 A 
ATOM     15  C15 UNK     1      48.336  13.991  -4.471  1.00  0.00     0.065 A 
ATOM     16  C14 UNK     1      48.597  14.264  -5.814  1.00  0.00     0.037 A 
ATOM     17  C10 UNK     1      48.352  13.292  -6.783  1.00  0.00     0.012 A 
BRANCH  15  18
ATOM     18  O5  UNK     1      48.576  14.940  -3.525  1.00  0.00    -0.361 OA
ATOM     19  H12 UNK     1      47.766  15.461  -3.389  1.00  0.00     0.217 HD
ENDBRANCH  15  18
ENDBRANCH   3  12
BRANCH   8  20
ATOM     20  O3  UNK     1      47.189   8.205 -11.625  1.00  0.00    -0.360 OA
ATOM     21  H10 UNK     1      47.523   7.344 -11.322  1.00  0.00     0.217 HD
ENDBRANCH   8  20
BRANCH  11  22
ATOM     22  O4  UNK     1      42.797   8.412  -9.836  1.00  0.00    -0.361 OA
ATOM     23  H11 UNK     1      42.701   7.721 -10.514  1.00  0.00     0.217 HD
ENDBRANCH  11  22
TORSDOF 4
ENDMDL
MODEL 11
REMARK VINA RESULT:      -5.5     10.149     12.082
REMARK  4 active torsions:
REMARK  status: ('A' for Active; 'I' for Inactive)
REMARK    1  A    between atoms: O3_3  and  C7_12 
REMARK    2  A    between atoms: O4_4  and  C12_17 
REMARK    3  A    between atoms: O5_5  and  C15_20 
REMARK    4  A    between atoms: C1_6  and  C3_8 
ROOT
ATOM      1  O1  UNK     1      46.224  11.379  -7.932  1.00  0.00    -0.340 OA
ATOM      2  O2  UNK     1      48.086   7.960  -9.225  1.00  0.00    -0.292 OA
ATOM      3  C1  UNK     1      47.376  10.867  -7.246  1.00  0.00     0.169 C 
ATOM      4  C2  UNK     1      48.301  10.121  -8.206  1.00  0.00     0.121 C 
ATOM      5  C4  UNK     1      46.093   9.212  -9.041  1.00  0.00     0.076 A 
ATOM      6  C5  UNK     1      47.539   8.986  -8.841  1.00  0.00     0.167 C 
ATOM      7  C6  UNK     1      45.521  10.407  -8.595  1.00  0.00     0.089 A 
ATOM      8  C7  UNK     1      45.313   8.262  -9.707  1.00  0.00     0.085 A 
ATOM      9  C8  UNK     1      44.174  10.668  -8.845  1.00  0.00     0.074 A 
ATOM     10  C11 UNK     1      43.961   8.519  -9.936  1.00  0.00     0.074 A 
ATOM     11  C12 UNK     1      43.393   9.722  -9.511  1.00  0.00     0.071 A 
ENDROOT
BRANCH   3  12
ATOM     12  C3  UNK     1      48.095  12.025  -6.585  1.00  0.00    -0.028 A 
ATOM     13  C9  UNK     1      48.998  12.794  -7.319  1.00  0.00     0.012 A 
ATOM     14  C13 UNK     1      49.659  13.861  -6.711  1.00  0.00     0.037 A 
ATOM     15  C15 UNK     1      49.418  14.158  -5.370  1.00  0.00     0.065 A 
ATOM     16  C14 UNK     1      48.515  13.388  -4.636  1.00  0.00     0.037 A 
ATOM     17  C10 UNK     1      47.853  12.322  -5.245  1.00  0.00     0.012 A 
BRANCH  15  18
ATOM     18  O5  UNK     1      50.064  15.199  -4.777  1.00  0.00    -0.361 OA
ATOM     19  H12 UNK     1      49.417  15.895  -4.570  1.00  0.00     0.217 HD
ENDBRANCH  15  18
ENDBRANCH   3  12
BRANCH   8  20
ATOM     20  O3  UNK     1      45.818   7.081 -10.158  1.00  0.00    -0.360 OA
ATOM     21  H10 UNK     1      46.012   7.151 -11.107  1.00  0.00     0.217 HD
ENDBRANCH   8  20
BRANCH  11  22
ATOM     22  O4  UNK     1      42.075   9.971  -9.745  1.00  0.00    -0.361 OA
ATOM     23  H11 UNK     1      41.563   9.165  -9.556  1.00  0.00     0.217 HD
ENDBRANCH  11  22
TORSDOF 4
ENDMDL
MODEL 12
REMARK VINA RESULT:      -5.5     10.149     12.042
REMARK  4 active torsions:
REMARK  status: ('A' for Active; 'I' for Inactive)
REMARK    1  A    between atoms: O3_3  and  C7_12 
REMARK    2  A    between atoms: O4_4  and  C12_17 
REMARK    3  A    between atoms: O5_5  and  C15_20 
REMARK    4  A    between atoms: C1_6  and  C3_8 
ROOT
ATOM      1  O1  UNK     1      46.224  11.379  -7.933  1.00  0.00    -0.340 OA
ATOM      2  O2  UNK     1      48.085   7.960  -9.226  1.00  0.00    -0.292 OA
ATOM      3  C1  UNK     1      47.376  10.867  -7.246  1.00  0.00     0.169 C 
ATOM      4  C2  UNK     1      48.300  10.121  -8.207  1.00  0.00     0.121 C 
ATOM      5  C4  UNK     1      46.092   9.212  -9.042  1.00  0.00     0.076 A 
ATOM      6  C5  UNK     1      47.539   8.986  -8.841  1.00  0.00     0.167 C 
ATOM      7  C6  UNK     1      45.521  10.407  -8.595  1.00  0.00     0.089 A 
ATOM      8  C7  UNK     1      45.313   8.262  -9.707  1.00  0.00     0.085 A 
ATOM      9  C8  UNK     1      44.173  10.667  -8.846  1.00  0.00     0.074 A 
ATOM     10  C11 UNK     1      43.961   8.519  -9.936  1.00  0.00     0.074 A 
ATOM     11  C12 UNK     1      43.393   9.721  -9.512  1.00  0.00     0.071 A 
ENDROOT
BRANCH   3  12
ATOM     12  C3  UNK     1      48.095  12.025  -6.586  1.00  0.00    -0.028 A 
ATOM     13  C9  UNK     1      47.852  12.321  -5.245  1.00  0.00     0.012 A 
ATOM     14  C13 UNK     1      48.515  13.388  -4.637  1.00  0.00     0.037 A 
ATOM     15  C15 UNK     1      49.418  14.158  -5.369  1.00  0.00     0.065 A 
ATOM     16  C14 UNK     1      49.659  13.861  -6.712  1.00  0.00     0.037 A 
ATOM     17  C10 UNK     1      48.998  12.794  -7.319  1.00  0.00     0.012 A 
BRANCH  15  18
ATOM     18  O5  UNK     1      50.063  15.199  -4.776  1.00  0.00    -0.361 OA
ATOM     19  H12 UNK     1      50.931  15.314  -5.200  1.00  0.00     0.217 HD
ENDBRANCH  15  18
ENDBRANCH   3  12
BRANCH   8  20
ATOM     20  O3  UNK     1      45.818   7.080 -10.158  1.00  0.00    -0.360 OA
ATOM     21  H10 UNK     1      46.283   7.225 -10.999  1.00  0.00     0.217 HD
ENDBRANCH   8  20
BRANCH  11  22
ATOM     22  O4  UNK     1      42.075   9.970  -9.745  1.00  0.00    -0.361 OA
ATOM     23  H11 UNK     1      41.926  10.012 -10.706  1.00  0.00     0.217 HD
ENDBRANCH  11  22
TORSDOF 4
ENDMDL
MODEL 13
REMARK VINA RESULT:      -5.3     10.206     11.197
REMARK  4 active torsions:
REMARK  status: ('A' for Active; 'I' for Inactive)
REMARK    1  A    between atoms: O3_3  and  C7_12 
REMARK    2  A    between atoms: O4_4  and  C12_17 
REMARK    3  A    between atoms: O5_5  and  C15_20 
REMARK    4  A    between atoms: C1_6  and  C3_8 
ROOT
ATOM      1  O1  UNK     1      46.802  11.181  -6.854  1.00  0.00    -0.340 OA
ATOM      2  O2  UNK     1      49.005  12.573 -10.022  1.00  0.00    -0.292 OA
ATOM      3  C1  UNK     1      48.228  11.015  -6.886  1.00  0.00     0.169 C 
ATOM      4  C2  UNK     1      48.894  12.147  -7.664  1.00  0.00     0.121 C 
ATOM      5  C4  UNK     1      46.951  11.722  -9.227  1.00  0.00     0.076 A 
ATOM      6  C5  UNK     1      48.353  12.164  -9.070  1.00  0.00     0.167 C 
ATOM      7  C6  UNK     1      46.248  11.276  -8.105  1.00  0.00     0.089 A 
ATOM      8  C7  UNK     1      46.323  11.789 -10.473  1.00  0.00     0.085 A 
ATOM      9  C8  UNK     1      44.902  10.929  -8.222  1.00  0.00     0.074 A 
ATOM     10  C11 UNK     1      44.982  11.420 -10.589  1.00  0.00     0.074 A 
ATOM     11  C12 UNK     1      44.271  10.996  -9.466  1.00  0.00     0.071 A 
ENDROOT
BRANCH   3  12
ATOM     12  C3  UNK     1      48.735  10.960  -5.459  1.00  0.00    -0.028 A 
ATOM     13  C9  UNK     1      48.302  11.906  -4.530  1.00  0.00     0.012 A 
ATOM     14  C13 UNK     1      48.769  11.855  -3.216  1.00  0.00     0.037 A 
ATOM     15  C15 UNK     1      49.667  10.860  -2.833  1.00  0.00     0.065 A 
ATOM     16  C14 UNK     1      50.100   9.915  -3.764  1.00  0.00     0.037 A 
ATOM     17  C10 UNK     1      49.632   9.965  -5.077  1.00  0.00     0.012 A 
BRANCH  15  18
ATOM     18  O5  UNK     1      50.123  10.811  -1.552  1.00  0.00    -0.361 OA
ATOM     19  H12 UNK     1      49.424  11.129  -0.956  1.00  0.00     0.217 HD
ENDBRANCH  15  18
ENDBRANCH   3  12
BRANCH   8  20
ATOM     20  O3  UNK     1      46.963  12.211 -11.599  1.00  0.00    -0.360 OA
ATOM     21  H10 UNK     1      47.910  12.005 -11.532  1.00  0.00     0.217 HD
ENDBRANCH   8  20
BRANCH  11  22
ATOM     22  O4  UNK     1      42.961  10.645  -9.583  1.00  0.00    -0.361 OA
ATOM     23  H11 UNK     1      42.426  11.227  -9.015  1.00  0.00     0.217 HD
ENDBRANCH  11  22
TORSDOF 4
ENDMDL
