MODEL 1
REMARK VINA RESULT:      -7.4      0.000      0.000
REMARK  4 active torsions:
REMARK  status: ('A' for Active; 'I' for Inactive)
REMARK    1  A    between atoms: O3_3  and  C7_12 
REMARK    2  A    between atoms: O4_4  and  C12_17 
REMARK    3  A    between atoms: O5_5  and  C15_20 
REMARK    4  A    between atoms: C1_6  and  C3_8 
ROOT
ATOM      1  O1  UNK     1      39.873  15.495  -0.000  1.00  0.00    -0.340 OA
ATOM      2  O2  UNK     1      41.273  16.435  -3.739  1.00  0.00    -0.292 OA
ATOM      3  C1  UNK     1      40.064  14.473  -0.990  1.00  0.00     0.169 C 
ATOM      4  C2  UNK     1      41.195  14.842  -1.948  1.00  0.00     0.121 C 
ATOM      5  C4  UNK     1      40.069  17.103  -1.822  1.00  0.00     0.076 A 
ATOM      6  C5  UNK     1      40.864  16.148  -2.622  1.00  0.00     0.167 C 
ATOM      7  C6  UNK     1      39.637  16.730  -0.546  1.00  0.00     0.089 A 
ATOM      8  C7  UNK     1      39.788  18.379  -2.317  1.00  0.00     0.085 A 
ATOM      9  C8  UNK     1      38.952  17.648   0.251  1.00  0.00     0.074 A 
ATOM     10  C11 UNK     1      39.084  19.286  -1.523  1.00  0.00     0.074 A 
ATOM     11  C12 UNK     1      38.672  18.924  -0.240  1.00  0.00     0.071 A 
ENDROOT
BRANCH   3  12
ATOM     12  C3  UNK     1      40.354  13.166  -0.281  1.00  0.00    -0.028 A 
ATOM     13  C9  UNK     1      40.028  13.020   1.067  1.00  0.00     0.012 A 
ATOM     14  C13 UNK     1      40.294  11.816   1.721  1.00  0.00     0.037 A 
ATOM     15  C15 UNK     1      40.887  10.762   1.027  1.00  0.00     0.065 A 
ATOM     16  C14 UNK     1      41.213  10.910  -0.322  1.00  0.00     0.037 A 
ATOM     17  C10 UNK     1      40.946  12.113  -0.975  1.00  0.00     0.012 A 
BRANCH  15  18
ATOM     18  O5  UNK     1      41.148   9.588   1.665  1.00  0.00    -0.361 OA
ATOM     19  H12 UNK     1      41.530   8.961   1.027  1.00  0.00     0.217 HD
ENDBRANCH  15  18
ENDBRANCH   3  12
BRANCH   8  20
ATOM     20  O3  UNK     1      40.180  18.793  -3.554  1.00  0.00    -0.360 OA
ATOM     21  H10 UNK     1      39.780  18.221  -4.230  1.00  0.00     0.217 HD
ENDBRANCH   8  20
BRANCH  11  22
ATOM     22  O4  UNK     1      37.993  19.815   0.533  1.00  0.00    -0.361 OA
ATOM     23  H11 UNK     1      37.457  20.388  -0.043  1.00  0.00     0.217 HD
ENDBRANCH  11  22
TORSDOF 4
ENDMDL
MODEL 2
REMARK VINA RESULT:      -7.4      0.009      1.080
REMARK  4 active torsions:
REMARK  status: ('A' for Active; 'I' for Inactive)
REMARK    1  A    between atoms: O3_3  and  C7_12 
REMARK    2  A    between atoms: O4_4  and  C12_17 
REMARK    3  A    between atoms: O5_5  and  C15_20 
REMARK    4  A    between atoms: C1_6  and  C3_8 
ROOT
ATOM      1  O1  UNK     1      39.875  15.494  -0.002  1.00  0.00    -0.340 OA
ATOM      2  O2  UNK     1      41.269  16.423  -3.746  1.00  0.00    -0.292 OA
ATOM      3  C1  UNK     1      40.062  14.469  -0.990  1.00  0.00     0.169 C 
ATOM      4  C2  UNK     1      41.192  14.834  -1.951  1.00  0.00     0.121 C 
ATOM      5  C4  UNK     1      40.070  17.098  -1.828  1.00  0.00     0.076 A 
ATOM      6  C5  UNK     1      40.862  16.139  -2.627  1.00  0.00     0.167 C 
ATOM      7  C6  UNK     1      39.640  16.728  -0.550  1.00  0.00     0.089 A 
ATOM      8  C7  UNK     1      39.790  18.373  -2.325  1.00  0.00     0.085 A 
ATOM      9  C8  UNK     1      38.958  17.648   0.246  1.00  0.00     0.074 A 
ATOM     10  C11 UNK     1      39.089  19.283  -1.532  1.00  0.00     0.074 A 
ATOM     11  C12 UNK     1      38.679  18.924  -0.247  1.00  0.00     0.071 A 
ENDROOT
BRANCH   3  12
ATOM     12  C3  UNK     1      40.351  13.164  -0.278  1.00  0.00    -0.028 A 
ATOM     13  C9  UNK     1      40.941  12.108  -0.972  1.00  0.00     0.012 A 
ATOM     14  C13 UNK     1      41.208  10.906  -0.316  1.00  0.00     0.037 A 
ATOM     15  C15 UNK     1      40.885  10.760   1.033  1.00  0.00     0.065 A 
ATOM     16  C14 UNK     1      40.294  11.818   1.726  1.00  0.00     0.037 A 
ATOM     17  C10 UNK     1      40.029  13.020   1.070  1.00  0.00     0.012 A 
BRANCH  15  18
ATOM     18  O5  UNK     1      41.144   9.588   1.672  1.00  0.00    -0.361 OA
ATOM     19  H12 UNK     1      41.529   8.960   1.037  1.00  0.00     0.217 HD
ENDBRANCH  15  18
ENDBRANCH   3  12
BRANCH   8  20
ATOM     20  O3  UNK     1      40.181  18.783  -3.564  1.00  0.00    -0.360 OA
ATOM     21  H10 UNK     1      40.738  18.099  -3.972  1.00  0.00     0.217 HD
ENDBRANCH   8  20
BRANCH  11  22
ATOM     22  O4  UNK     1      38.002  19.818   0.525  1.00  0.00    -0.361 OA
ATOM     23  H11 UNK     1      38.490  20.660   0.533  1.00  0.00     0.217 HD
ENDBRANCH  11  22
TORSDOF 4
ENDMDL
MODEL 3
REMARK VINA RESULT:      -7.4      2.418      7.056
REMARK  4 active torsions:
REMARK  status: ('A' for Active; 'I' for Inactive)
REMARK    1  A    between atoms: O3_3  and  C7_12 
REMARK    2  A    between atoms: O4_4  and  C12_17 
REMARK    3  A    between atoms: O5_5  and  C15_20 
REMARK    4  A    between atoms: C1_6  and  C3_8 
ROOT
ATOM      1  O1  UNK     1      40.410  17.048  -1.012  1.00  0.00    -0.340 OA
ATOM      2  O2  UNK     1      36.899  14.968  -0.593  1.00  0.00    -0.292 OA
ATOM      3  C1  UNK     1      39.146  17.684  -1.258  1.00  0.00     0.169 C 
ATOM      4  C2  UNK     1      38.045  17.067  -0.398  1.00  0.00     0.121 C 
ATOM      5  C4  UNK     1      39.204  14.930  -1.101  1.00  0.00     0.076 A 
ATOM      6  C5  UNK     1      37.944  15.596  -0.711  1.00  0.00     0.167 C 
ATOM      7  C6  UNK     1      40.372  15.692  -1.208  1.00  0.00     0.089 A 
ATOM      8  C7  UNK     1      39.239  13.551  -1.319  1.00  0.00     0.085 A 
ATOM      9  C8  UNK     1      41.584  15.066  -1.500  1.00  0.00     0.074 A 
ATOM     10  C11 UNK     1      40.451  12.933  -1.632  1.00  0.00     0.074 A 
ATOM     11  C12 UNK     1      41.622  13.687  -1.716  1.00  0.00     0.071 A 
ENDROOT
BRANCH   3  12
ATOM     12  C3  UNK     1      39.293  19.165  -0.975  1.00  0.00    -0.028 A 
ATOM     13  C9  UNK     1      38.642  19.733   0.120  1.00  0.00     0.012 A 
ATOM     14  C13 UNK     1      38.777  21.097   0.380  1.00  0.00     0.037 A 
ATOM     15  C15 UNK     1      39.563  21.892  -0.454  1.00  0.00     0.065 A 
ATOM     16  C14 UNK     1      40.214  21.323  -1.550  1.00  0.00     0.037 A 
ATOM     17  C10 UNK     1      40.079  19.959  -1.809  1.00  0.00     0.012 A 
BRANCH  15  18
ATOM     18  O5  UNK     1      39.694  23.222  -0.200  1.00  0.00    -0.361 OA
ATOM     19  H12 UNK     1      39.168  23.447   0.585  1.00  0.00     0.217 HD
ENDBRANCH  15  18
ENDBRANCH   3  12
BRANCH   8  20
ATOM     20  O3  UNK     1      38.131  12.764  -1.232  1.00  0.00    -0.360 OA
ATOM     21  H10 UNK     1      38.332  11.977  -0.699  1.00  0.00     0.217 HD
ENDBRANCH   8  20
BRANCH  11  22
ATOM     22  O4  UNK     1      42.803  13.079  -2.014  1.00  0.00    -0.361 OA
ATOM     23  H11 UNK     1      43.225  12.788  -1.187  1.00  0.00     0.217 HD
ENDBRANCH  11  22
TORSDOF 4
ENDMDL
MODEL 4
REMARK VINA RESULT:      -7.1      1.306      2.820
REMARK  4 active torsions:
REMARK  status: ('A' for Active; 'I' for Inactive)
REMARK    1  A    between atoms: O3_3  and  C7_12 
REMARK    2  A    between atoms: O4_4  and  C12_17 
REMARK    3  A    between atoms: O5_5  and  C15_20 
REMARK    4  A    between atoms: C1_6  and  C3_8 
ROOT
ATOM      1  O1  UNK     1      40.478  15.168  -2.034  1.00  0.00    -0.340 OA
ATOM      2  O2  UNK     1      38.805  18.105   0.290  1.00  0.00    -0.292 OA
ATOM      3  C1  UNK     1      40.530  15.089  -0.601  1.00  0.00     0.169 C 
ATOM      4  C2  UNK     1      39.322  15.777   0.030  1.00  0.00     0.121 C 
ATOM      5  C4  UNK     1      39.843  17.504  -1.743  1.00  0.00     0.076 A 
ATOM      6  C5  UNK     1      39.298  17.221  -0.399  1.00  0.00     0.167 C 
ATOM      7  C6  UNK     1      40.383  16.456  -2.494  1.00  0.00     0.089 A 
ATOM      8  C7  UNK     1      39.781  18.794  -2.276  1.00  0.00     0.085 A 
ATOM      9  C8  UNK     1      40.830  16.692  -3.794  1.00  0.00     0.074 A 
ATOM     10  C11 UNK     1      40.250  19.029  -3.569  1.00  0.00     0.074 A 
ATOM     11  C12 UNK     1      40.768  17.980  -4.329  1.00  0.00     0.071 A 
ENDROOT
BRANCH   3  12
ATOM     12  C3  UNK     1      40.596  13.629  -0.204  1.00  0.00    -0.028 A 
ATOM     13  C9  UNK     1      40.149  13.229   1.055  1.00  0.00     0.012 A 
ATOM     14  C13 UNK     1      40.209  11.884   1.421  1.00  0.00     0.037 A 
ATOM     15  C15 UNK     1      40.715  10.940   0.528  1.00  0.00     0.065 A 
ATOM     16  C14 UNK     1      41.162  11.341  -0.732  1.00  0.00     0.037 A 
ATOM     17  C10 UNK     1      41.101  12.686  -1.098  1.00  0.00     0.012 A 
BRANCH  15  18
ATOM     18  O5  UNK     1      40.774   9.628   0.884  1.00  0.00    -0.361 OA
ATOM     19  H12 UNK     1      41.705   9.379   1.018  1.00  0.00     0.217 HD
ENDBRANCH  15  18
ENDBRANCH   3  12
BRANCH   8  20
ATOM     20  O3  UNK     1      39.270  19.852  -1.586  1.00  0.00    -0.360 OA
ATOM     21  H10 UNK     1      39.489  20.678  -2.048  1.00  0.00     0.217 HD
ENDBRANCH   8  20
BRANCH  11  22
ATOM     22  O4  UNK     1      41.217  18.213  -5.593  1.00  0.00    -0.361 OA
ATOM     23  H11 UNK     1      42.092  18.635  -5.545  1.00  0.00     0.217 HD
ENDBRANCH  11  22
TORSDOF 4
ENDMDL
MODEL 5
REMARK VINA RESULT:      -6.4      1.569      6.691
REMARK  4 active torsions:
REMARK  status: ('A' for Active; 'I' for Inactive)
REMARK    1  A    between atoms: O3_3  and  C7_12 
REMARK    2  A    between atoms: O4_4  and  C12_17 
REMARK    3  A    between atoms: O5_5  and  C15_20 
REMARK    4  A    between atoms: C1_6  and  C3_8 
ROOT
ATOM      1  O1  UNK     1      40.151  14.013   0.667  1.00  0.00    -0.340 OA
ATOM      2  O2  UNK     1      41.606  10.599  -1.080  1.00  0.00    -0.292 OA
ATOM      3  C1  UNK     1      40.988  14.084  -0.498  1.00  0.00     0.169 C 
ATOM      4  C2  UNK     1      40.815  12.845  -1.373  1.00  0.00     0.121 C 
ATOM      5  C4  UNK     1      40.881  11.697   0.880  1.00  0.00     0.076 A 
ATOM      6  C5  UNK     1      41.167  11.621  -0.567  1.00  0.00     0.167 C 
ATOM      7  C6  UNK     1      40.368  12.883   1.412  1.00  0.00     0.089 A 
ATOM      8  C7  UNK     1      41.081  10.584   1.701  1.00  0.00     0.085 A 
ATOM      9  C8  UNK     1      40.022  12.946   2.762  1.00  0.00     0.074 A 
ATOM     10  C11 UNK     1      40.752  10.659   3.055  1.00  0.00     0.074 A 
ATOM     11  C12 UNK     1      40.218  11.835   3.584  1.00  0.00     0.071 A 
ENDROOT
BRANCH   3  12
ATOM     12  C3  UNK     1      40.639  15.345  -1.262  1.00  0.00    -0.028 A 
ATOM     13  C9  UNK     1      39.938  16.371  -0.629  1.00  0.00     0.012 A 
ATOM     14  C13 UNK     1      39.617  17.532  -1.333  1.00  0.00     0.037 A 
ATOM     15  C15 UNK     1      39.997  17.666  -2.668  1.00  0.00     0.065 A 
ATOM     16  C14 UNK     1      40.699  16.639  -3.300  1.00  0.00     0.037 A 
ATOM     17  C10 UNK     1      41.020  15.479  -2.596  1.00  0.00     0.012 A 
BRANCH  15  18
ATOM     18  O5  UNK     1      39.683  18.799  -3.354  1.00  0.00    -0.361 OA
ATOM     19  H12 UNK     1      38.968  18.599  -3.982  1.00  0.00     0.217 HD
ENDBRANCH  15  18
ENDBRANCH   3  12
BRANCH   8  20
ATOM     20  O3  UNK     1      41.582   9.406   1.236  1.00  0.00    -0.360 OA
ATOM     21  H10 UNK     1      42.372   9.164   1.747  1.00  0.00     0.217 HD
ENDBRANCH   8  20
BRANCH  11  22
ATOM     22  O4  UNK     1      39.892  11.900   4.904  1.00  0.00    -0.361 OA
ATOM     23  H11 UNK     1      39.111  12.471   5.008  1.00  0.00     0.217 HD
ENDBRANCH  11  22
TORSDOF 4
ENDMDL
MODEL 6
REMARK VINA RESULT:      -6.2      1.544      6.701
REMARK  4 active torsions:
REMARK  status: ('A' for Active; 'I' for Inactive)
REMARK    1  A    between atoms: O3_3  and  C7_12 
REMARK    2  A    between atoms: O4_4  and  C12_17 
REMARK    3  A    between atoms: O5_5  and  C15_20 
REMARK    4  A    between atoms: C1_6  and  C3_8 
ROOT
ATOM      1  O1  UNK     1      39.742  14.211   0.286  1.00  0.00    -0.340 OA
ATOM      2  O2  UNK     1      42.005  12.162  -2.454  1.00  0.00    -0.292 OA
ATOM      3  C1  UNK     1      40.638  14.908  -0.594  1.00  0.00     0.169 C 
ATOM      4  C2  UNK     1      40.796  14.163  -1.918  1.00  0.00     0.121 C 
ATOM      5  C4  UNK     1      40.913  12.173  -0.361  1.00  0.00     0.076 A 
ATOM      6  C5  UNK     1      41.325  12.779  -1.644  1.00  0.00     0.167 C 
ATOM      7  C6  UNK     1      40.125  12.917   0.522  1.00  0.00     0.089 A 
ATOM      8  C7  UNK     1      41.270  10.858  -0.052  1.00  0.00     0.085 A 
ATOM      9  C8  UNK     1      39.665  12.332   1.702  1.00  0.00     0.074 A 
ATOM     10  C11 UNK     1      40.823  10.285   1.139  1.00  0.00     0.074 A 
ATOM     11  C12 UNK     1      40.018  11.017   2.012  1.00  0.00     0.071 A 
ENDROOT
BRANCH   3  12
ATOM     12  C3  UNK     1      40.101  16.307  -0.815  1.00  0.00    -0.028 A 
ATOM     13  C9  UNK     1      40.320  16.952  -2.032  1.00  0.00     0.012 A 
ATOM     14  C13 UNK     1      39.825  18.241  -2.235  1.00  0.00     0.037 A 
ATOM     15  C15 UNK     1      39.112  18.882  -1.223  1.00  0.00     0.065 A 
ATOM     16  C14 UNK     1      38.893  18.235  -0.006  1.00  0.00     0.037 A 
ATOM     17  C10 UNK     1      39.387  16.947   0.197  1.00  0.00     0.012 A 
BRANCH  15  18
ATOM     18  O5  UNK     1      38.629  20.139  -1.422  1.00  0.00    -0.361 OA
ATOM     19  H12 UNK     1      37.982  20.342  -0.725  1.00  0.00     0.217 HD
ENDBRANCH  15  18
ENDBRANCH   3  12
BRANCH   8  20
ATOM     20  O3  UNK     1      42.038  10.091  -0.874  1.00  0.00    -0.360 OA
ATOM     21  H10 UNK     1      41.687  10.131  -1.779  1.00  0.00     0.217 HD
ENDBRANCH   8  20
BRANCH  11  22
ATOM     22  O4  UNK     1      39.579  10.451   3.170  1.00  0.00    -0.361 OA
ATOM     23  H11 UNK     1      39.315  11.156   3.786  1.00  0.00     0.217 HD
ENDBRANCH  11  22
TORSDOF 4
ENDMDL
MODEL 7
REMARK VINA RESULT:      -6.1      1.613      6.533
REMARK  4 active torsions:
REMARK  status: ('A' for Active; 'I' for Inactive)
REMARK    1  A    between atoms: O3_3  and  C7_12 
REMARK    2  A    between atoms: O4_4  and  C12_17 
REMARK    3  A    between atoms: O5_5  and  C15_20 
REMARK    4  A    between atoms: C1_6  and  C3_8 
ROOT
ATOM      1  O1  UNK     1      39.351  15.188  -0.360  1.00  0.00    -0.340 OA
ATOM      2  O2  UNK     1      42.529  14.521  -2.867  1.00  0.00    -0.292 OA
ATOM      3  C1  UNK     1      40.280  16.240  -0.663  1.00  0.00     0.169 C 
ATOM      4  C2  UNK     1      40.877  16.061  -2.057  1.00  0.00     0.121 C 
ATOM      5  C4  UNK     1      41.000  13.652  -1.293  1.00  0.00     0.076 A 
ATOM      6  C5  UNK     1      41.577  14.728  -2.125  1.00  0.00     0.167 C 
ATOM      7  C6  UNK     1      39.904  13.939  -0.473  1.00  0.00     0.089 A 
ATOM      8  C7  UNK     1      41.514  12.355  -1.355  1.00  0.00     0.085 A 
ATOM      9  C8  UNK     1      39.300  12.917   0.260  1.00  0.00     0.074 A 
ATOM     10  C11 UNK     1      40.919  11.341  -0.604  1.00  0.00     0.074 A 
ATOM     11  C12 UNK     1      39.811  11.619   0.198  1.00  0.00     0.071 A 
ENDROOT
BRANCH   3  12
ATOM     12  C3  UNK     1      39.558  17.566  -0.545  1.00  0.00    -0.028 A 
ATOM     13  C9  UNK     1      39.744  18.549  -1.516  1.00  0.00     0.012 A 
ATOM     14  C13 UNK     1      39.077  19.770  -1.408  1.00  0.00     0.037 A 
ATOM     15  C15 UNK     1      38.227  20.007  -0.329  1.00  0.00     0.065 A 
ATOM     16  C14 UNK     1      38.042  19.023   0.644  1.00  0.00     0.037 A 
ATOM     17  C10 UNK     1      38.707  17.802   0.534  1.00  0.00     0.012 A 
BRANCH  15  18
ATOM     18  O5  UNK     1      37.578  21.198  -0.222  1.00  0.00    -0.361 OA
ATOM     19  H12 UNK     1      36.633  21.030  -0.067  1.00  0.00     0.217 HD
ENDBRANCH  15  18
ENDBRANCH   3  12
BRANCH   8  20
ATOM     20  O3  UNK     1      42.582  12.023  -2.133  1.00  0.00    -0.360 OA
ATOM     21  H10 UNK     1      42.965  11.186  -1.820  1.00  0.00     0.217 HD
ENDBRANCH   8  20
BRANCH  11  22
ATOM     22  O4  UNK     1      39.229  10.625   0.923  1.00  0.00    -0.361 OA
ATOM     23  H11 UNK     1      39.871   9.903   1.041  1.00  0.00     0.217 HD
ENDBRANCH  11  22
TORSDOF 4
ENDMDL
MODEL 8
REMARK VINA RESULT:      -5.6     10.148     13.010
REMARK  4 active torsions:
REMARK  status: ('A' for Active; 'I' for Inactive)
REMARK    1  A    between atoms: O3_3  and  C7_12 
REMARK    2  A    between atoms: O4_4  and  C12_17 
REMARK    3  A    between atoms: O5_5  and  C15_20 
REMARK    4  A    between atoms: C1_6  and  C3_8 
ROOT
ATOM      1  O1  UNK     1      48.359   9.736  -6.889  1.00  0.00    -0.340 OA
ATOM      2  O2  UNK     1      45.711   9.892 -10.018  1.00  0.00    -0.292 OA
ATOM      3  C1  UNK     1      47.985  10.994  -7.471  1.00  0.00     0.169 C 
ATOM      4  C2  UNK     1      46.567  10.937  -8.035  1.00  0.00     0.121 C 
ATOM      5  C4  UNK     1      47.381   8.689  -8.862  1.00  0.00     0.076 A 
ATOM      6  C5  UNK     1      46.495   9.851  -9.078  1.00  0.00     0.167 C 
ATOM      7  C6  UNK     1      48.248   8.688  -7.765  1.00  0.00     0.089 A 
ATOM      8  C7  UNK     1      47.324   7.585  -9.717  1.00  0.00     0.085 A 
ATOM      9  C8  UNK     1      49.035   7.566  -7.504  1.00  0.00     0.074 A 
ATOM     10  C11 UNK     1      48.129   6.474  -9.462  1.00  0.00     0.074 A 
ATOM     11  C12 UNK     1      48.979   6.461  -8.355  1.00  0.00     0.071 A 
ENDROOT
BRANCH   3  12
ATOM     12  C3  UNK     1      48.108  12.068  -6.411  1.00  0.00    -0.028 A 
ATOM     13  C9  UNK     1      47.715  11.800  -5.100  1.00  0.00     0.012 A 
ATOM     14  C13 UNK     1      47.829  12.790  -4.123  1.00  0.00     0.037 A 
ATOM     15  C15 UNK     1      48.334  14.046  -4.457  1.00  0.00     0.065 A 
ATOM     16  C14 UNK     1      48.726  14.313  -5.770  1.00  0.00     0.037 A 
ATOM     17  C10 UNK     1      48.614  13.323  -6.746  1.00  0.00     0.012 A 
BRANCH  15  18
ATOM     18  O5  UNK     1      48.444  15.011  -3.504  1.00  0.00    -0.361 OA
ATOM     19  H12 UNK     1      47.703  14.925  -2.881  1.00  0.00     0.217 HD
ENDBRANCH  15  18
ENDBRANCH   3  12
BRANCH   8  20
ATOM     20  O3  UNK     1      46.501   7.536 -10.801  1.00  0.00    -0.360 OA
ATOM     21  H10 UNK     1      46.268   8.439 -11.074  1.00  0.00     0.217 HD
ENDBRANCH   8  20
BRANCH  11  22
ATOM     22  O4  UNK     1      49.756   5.372  -8.107  1.00  0.00    -0.361 OA
ATOM     23  H11 UNK     1      50.527   5.392  -8.701  1.00  0.00     0.217 HD
ENDBRANCH  11  22
TORSDOF 4
ENDMDL
MODEL 9
REMARK VINA RESULT:      -5.6     10.157     13.036
REMARK  4 active torsions:
REMARK  status: ('A' for Active; 'I' for Inactive)
REMARK    1  A    between atoms: O3_3  and  C7_12 
REMARK    2  A    between atoms: O4_4  and  C12_17 
REMARK    3  A    between atoms: O5_5  and  C15_20 
REMARK    4  A    between atoms: C1_6  and  C3_8 
ROOT
ATOM      1  O1  UNK     1      48.354   9.745  -6.895  1.00  0.00    -0.340 OA
ATOM      2  O2  UNK     1      45.778   9.945 -10.081  1.00  0.00    -0.292 OA
ATOM      3  C1  UNK     1      48.011  11.010  -7.483  1.00  0.00     0.169 C 
ATOM      4  C2  UNK     1      46.605  10.974  -8.078  1.00  0.00     0.121 C 
ATOM      5  C4  UNK     1      47.404   8.716  -8.891  1.00  0.00     0.076 A 
ATOM      6  C5  UNK     1      46.540   9.892  -9.124  1.00  0.00     0.167 C 
ATOM      7  C6  UNK     1      48.247   8.701  -7.776  1.00  0.00     0.089 A 
ATOM      8  C7  UNK     1      47.349   7.615  -9.749  1.00  0.00     0.085 A 
ATOM      9  C8  UNK     1      49.011   7.567  -7.500  1.00  0.00     0.074 A 
ATOM     10  C11 UNK     1      48.132   6.492  -9.480  1.00  0.00     0.074 A 
ATOM     11  C12 UNK     1      48.957   6.465  -8.355  1.00  0.00     0.071 A 
ENDROOT
BRANCH   3  12
ATOM     12  C3  UNK     1      48.126  12.080  -6.417  1.00  0.00    -0.028 A 
ATOM     13  C9  UNK     1      48.644  13.334  -6.744  1.00  0.00     0.012 A 
ATOM     14  C13 UNK     1      48.750  14.320  -5.762  1.00  0.00     0.037 A 
ATOM     15  C15 UNK     1      48.339  14.052  -4.457  1.00  0.00     0.065 A 
ATOM     16  C14 UNK     1      47.821  12.798  -4.132  1.00  0.00     0.037 A 
ATOM     17  C10 UNK     1      47.715  11.812  -5.113  1.00  0.00     0.012 A 
BRANCH  15  18
ATOM     18  O5  UNK     1      48.442  15.014  -3.500  1.00  0.00    -0.361 OA
ATOM     19  H12 UNK     1      49.355  15.027  -3.163  1.00  0.00     0.217 HD
ENDBRANCH  15  18
ENDBRANCH   3  12
BRANCH   8  20
ATOM     20  O3  UNK     1      46.550   7.580 -10.852  1.00  0.00    -0.360 OA
ATOM     21  H10 UNK     1      47.052   7.883 -11.627  1.00  0.00     0.217 HD
ENDBRANCH   8  20
BRANCH  11  22
ATOM     22  O4  UNK     1      49.713   5.363  -8.092  1.00  0.00    -0.361 OA
ATOM     23  H11 UNK     1      50.470   5.347  -8.703  1.00  0.00     0.217 HD
ENDBRANCH  11  22
TORSDOF 4
ENDMDL
MODEL 10
REMARK VINA RESULT:      -5.6      9.732     12.123
REMARK  4 active torsions:
REMARK  status: ('A' for Active; 'I' for Inactive)
REMARK    1  A    between atoms: O3_3  and  C7_12 
REMARK    2  A    between atoms: O4_4  and  C12_17 
REMARK    3  A    between atoms: O5_5  and  C15_20 
REMARK    4  A    between atoms: C1_6  and  C3_8 
ROOT
ATOM      1  O1  UNK     1      46.213  11.064  -7.745  1.00  0.00    -0.340 OA
ATOM      2  O2  UNK     1      48.985   9.912 -10.540  1.00  0.00    -0.292 OA
ATOM      3  C1  UNK     1      47.614  11.066  -7.433  1.00  0.00     0.169 C 
ATOM      4  C2  UNK     1      48.454  11.331  -8.681  1.00  0.00     0.121 C 
ATOM      5  C4  UNK     1      46.791   9.716  -9.693  1.00  0.00     0.076 A 
ATOM      6  C5  UNK     1      48.162  10.265  -9.705  1.00  0.00     0.167 C 
ATOM      7  C6  UNK     1      45.886  10.164  -8.726  1.00  0.00     0.089 A 
ATOM      8  C7  UNK     1      46.389   8.793 -10.662  1.00  0.00     0.085 A 
ATOM      9  C8  UNK     1      44.566   9.713  -8.749  1.00  0.00     0.074 A 
ATOM     10  C11 UNK     1      45.073   8.329 -10.667  1.00  0.00     0.074 A 
ATOM     11  C12 UNK     1      44.161   8.792  -9.716  1.00  0.00     0.071 A 
ENDROOT
BRANCH   3  12
ATOM     12  C3  UNK     1      47.867  12.118  -6.372  1.00  0.00    -0.028 A 
ATOM     13  C9  UNK     1      47.612  11.829  -5.032  1.00  0.00     0.012 A 
ATOM     14  C13 UNK     1      47.845  12.798  -4.054  1.00  0.00     0.037 A 
ATOM     15  C15 UNK     1      48.331  14.053  -4.418  1.00  0.00     0.065 A 
ATOM     16  C14 UNK     1      48.586  14.340  -5.760  1.00  0.00     0.037 A 
ATOM     17  C10 UNK     1      48.354  13.372  -6.736  1.00  0.00     0.012 A 
BRANCH  15  18
ATOM     18  O5  UNK     1      48.558  14.997  -3.465  1.00  0.00    -0.361 OA
ATOM     19  H12 UNK     1      47.810  15.004  -2.844  1.00  0.00     0.217 HD
ENDBRANCH  15  18
ENDBRANCH   3  12
BRANCH   8  20
ATOM     20  O3  UNK     1      47.230   8.320 -11.623  1.00  0.00    -0.360 OA
ATOM     21  H10 UNK     1      46.810   7.577 -12.086  1.00  0.00     0.217 HD
ENDBRANCH   8  20
BRANCH  11  22
ATOM     22  O4  UNK     1      42.876   8.342  -9.731  1.00  0.00    -0.361 OA
ATOM     23  H11 UNK     1      42.641   8.030  -8.840  1.00  0.00     0.217 HD
ENDBRANCH  11  22
TORSDOF 4
ENDMDL
MODEL 11
REMARK VINA RESULT:      -5.5     10.163     12.061
REMARK  4 active torsions:
REMARK  status: ('A' for Active; 'I' for Inactive)
REMARK    1  A    between atoms: O3_3  and  C7_12 
REMARK    2  A    between atoms: O4_4  and  C12_17 
REMARK    3  A    between atoms: O5_5  and  C15_20 
REMARK    4  A    between atoms: C1_6  and  C3_8 
ROOT
ATOM      1  O1  UNK     1      46.224  11.380  -7.933  1.00  0.00    -0.340 OA
ATOM      2  O2  UNK     1      48.086   7.961  -9.226  1.00  0.00    -0.292 OA
ATOM      3  C1  UNK     1      47.377  10.867  -7.246  1.00  0.00     0.169 C 
ATOM      4  C2  UNK     1      48.301  10.122  -8.207  1.00  0.00     0.121 C 
ATOM      5  C4  UNK     1      46.093   9.212  -9.042  1.00  0.00     0.076 A 
ATOM      6  C5  UNK     1      47.540   8.987  -8.841  1.00  0.00     0.167 C 
ATOM      7  C6  UNK     1      45.522  10.407  -8.595  1.00  0.00     0.089 A 
ATOM      8  C7  UNK     1      45.314   8.263  -9.707  1.00  0.00     0.085 A 
ATOM      9  C8  UNK     1      44.174  10.668  -8.845  1.00  0.00     0.074 A 
ATOM     10  C11 UNK     1      43.961   8.519  -9.936  1.00  0.00     0.074 A 
ATOM     11  C12 UNK     1      43.393   9.722  -9.511  1.00  0.00     0.071 A 
ENDROOT
BRANCH   3  12
ATOM     12  C3  UNK     1      48.095  12.026  -6.586  1.00  0.00    -0.028 A 
ATOM     13  C9  UNK     1      47.853  12.322  -5.245  1.00  0.00     0.012 A 
ATOM     14  C13 UNK     1      48.515  13.389  -4.636  1.00  0.00     0.037 A 
ATOM     15  C15 UNK     1      49.418  14.158  -5.369  1.00  0.00     0.065 A 
ATOM     16  C14 UNK     1      49.660  13.861  -6.711  1.00  0.00     0.037 A 
ATOM     17  C10 UNK     1      48.998  12.794  -7.319  1.00  0.00     0.012 A 
BRANCH  15  18
ATOM     18  O5  UNK     1      50.064  15.199  -4.776  1.00  0.00    -0.361 OA
ATOM     19  H12 UNK     1      50.948  14.905  -4.498  1.00  0.00     0.217 HD
ENDBRANCH  15  18
ENDBRANCH   3  12
BRANCH   8  20
ATOM     20  O3  UNK     1      45.819   7.081 -10.158  1.00  0.00    -0.360 OA
ATOM     21  H10 UNK     1      45.152   6.628 -10.700  1.00  0.00     0.217 HD
ENDBRANCH   8  20
BRANCH  11  22
ATOM     22  O4  UNK     1      42.075   9.970  -9.744  1.00  0.00    -0.361 OA
ATOM     23  H11 UNK     1      41.577   9.139  -9.655  1.00  0.00     0.217 HD
ENDBRANCH  11  22
TORSDOF 4
ENDMDL
MODEL 12
REMARK VINA RESULT:      -5.5     10.167     12.101
REMARK  4 active torsions:
REMARK  status: ('A' for Active; 'I' for Inactive)
REMARK    1  A    between atoms: O3_3  and  C7_12 
REMARK    2  A    between atoms: O4_4  and  C12_17 
REMARK    3  A    between atoms: O5_5  and  C15_20 
REMARK    4  A    between atoms: C1_6  and  C3_8 
ROOT
ATOM      1  O1  UNK     1      46.231  11.385  -7.930  1.00  0.00    -0.340 OA
ATOM      2  O2  UNK     1      48.091   7.963  -9.218  1.00  0.00    -0.292 OA
ATOM      3  C1  UNK     1      47.382  10.872  -7.242  1.00  0.00     0.169 C 
ATOM      4  C2  UNK     1      48.307  10.125  -8.201  1.00  0.00     0.121 C 
ATOM      5  C4  UNK     1      46.099   9.217  -9.037  1.00  0.00     0.076 A 
ATOM      6  C5  UNK     1      47.545   8.990  -8.835  1.00  0.00     0.167 C 
ATOM      7  C6  UNK     1      45.528  10.413  -8.592  1.00  0.00     0.089 A 
ATOM      8  C7  UNK     1      45.319   8.267  -9.702  1.00  0.00     0.085 A 
ATOM      9  C8  UNK     1      44.181  10.675  -8.845  1.00  0.00     0.074 A 
ATOM     10  C11 UNK     1      43.968   8.525  -9.933  1.00  0.00     0.074 A 
ATOM     11  C12 UNK     1      43.400   9.729  -9.511  1.00  0.00     0.071 A 
ENDROOT
BRANCH   3  12
ATOM     12  C3  UNK     1      48.101  12.031  -6.582  1.00  0.00    -0.028 A 
ATOM     13  C9  UNK     1      49.001  12.801  -7.318  1.00  0.00     0.012 A 
ATOM     14  C13 UNK     1      49.663  13.869  -6.709  1.00  0.00     0.037 A 
ATOM     15  C15 UNK     1      49.425  14.164  -5.368  1.00  0.00     0.065 A 
ATOM     16  C14 UNK     1      48.524  13.392  -4.633  1.00  0.00     0.037 A 
ATOM     17  C10 UNK     1      47.862  12.326  -5.241  1.00  0.00     0.012 A 
BRANCH  15  18
ATOM     18  O5  UNK     1      50.071  15.205  -4.775  1.00  0.00    -0.361 OA
ATOM     19  H12 UNK     1      50.281  15.872  -5.450  1.00  0.00     0.217 HD
ENDBRANCH  15  18
ENDBRANCH   3  12
BRANCH   8  20
ATOM     20  O3  UNK     1      45.824   7.085 -10.152  1.00  0.00    -0.360 OA
ATOM     21  H10 UNK     1      45.644   6.995 -11.102  1.00  0.00     0.217 HD
ENDBRANCH   8  20
BRANCH  11  22
ATOM     22  O4  UNK     1      42.083   9.979  -9.746  1.00  0.00    -0.361 OA
ATOM     23  H11 UNK     1      41.975  10.259 -10.671  1.00  0.00     0.217 HD
ENDBRANCH  11  22
TORSDOF 4
ENDMDL
MODEL 13
REMARK VINA RESULT:      -5.3     10.200     11.231
REMARK  4 active torsions:
REMARK  status: ('A' for Active; 'I' for Inactive)
REMARK    1  A    between atoms: O3_3  and  C7_12 
REMARK    2  A    between atoms: O4_4  and  C12_17 
REMARK    3  A    between atoms: O5_5  and  C15_20 
REMARK    4  A    between atoms: C1_6  and  C3_8 
ROOT
ATOM      1  O1  UNK     1      46.797  11.209  -6.824  1.00  0.00    -0.340 OA
ATOM      2  O2  UNK     1      48.986  12.602 -10.001  1.00  0.00    -0.292 OA
ATOM      3  C1  UNK     1      48.225  11.058  -6.854  1.00  0.00     0.169 C 
ATOM      4  C2  UNK     1      48.880  12.191  -7.640  1.00  0.00     0.121 C 
ATOM      5  C4  UNK     1      46.942  11.735  -9.200  1.00  0.00     0.076 A 
ATOM      6  C5  UNK     1      48.338  12.192  -9.046  1.00  0.00     0.167 C 
ATOM      7  C6  UNK     1      46.243  11.290  -8.075  1.00  0.00     0.089 A 
ATOM      8  C7  UNK     1      46.313  11.787 -10.447  1.00  0.00     0.085 A 
ATOM      9  C8  UNK     1      44.900  10.928  -8.190  1.00  0.00     0.074 A 
ATOM     10  C11 UNK     1      44.976  11.404 -10.560  1.00  0.00     0.074 A 
ATOM     11  C12 UNK     1      44.269  10.981  -9.434  1.00  0.00     0.071 A 
ENDROOT
BRANCH   3  12
ATOM     12  C3  UNK     1      48.733  11.018  -5.427  1.00  0.00    -0.028 A 
ATOM     13  C9  UNK     1      49.626  10.022  -5.034  1.00  0.00     0.012 A 
ATOM     14  C13 UNK     1      50.094   9.986  -3.720  1.00  0.00     0.037 A 
ATOM     15  C15 UNK     1      49.668  10.944  -2.801  1.00  0.00     0.065 A 
ATOM     16  C14 UNK     1      48.773  11.940  -3.196  1.00  0.00     0.037 A 
ATOM     17  C10 UNK     1      48.307  11.977  -4.510  1.00  0.00     0.012 A 
BRANCH  15  18
ATOM     18  O5  UNK     1      50.124  10.909  -1.519  1.00  0.00    -0.361 OA
ATOM     19  H12 UNK     1      49.404  10.614  -0.937  1.00  0.00     0.217 HD
ENDBRANCH  15  18
ENDBRANCH   3  12
BRANCH   8  20
ATOM     20  O3  UNK     1      46.949  12.208 -11.575  1.00  0.00    -0.360 OA
ATOM     21  H10 UNK     1      47.491  12.988 -11.372  1.00  0.00     0.217 HD
ENDBRANCH   8  20
BRANCH  11  22
ATOM     22  O4  UNK     1      42.962  10.616  -9.549  1.00  0.00    -0.361 OA
ATOM     23  H11 UNK     1      42.422  11.414  -9.679  1.00  0.00     0.217 HD
ENDBRANCH  11  22
TORSDOF 4
ENDMDL
MODEL 14
REMARK VINA RESULT:      -5.3     10.192     11.195
REMARK  4 active torsions:
REMARK  status: ('A' for Active; 'I' for Inactive)
REMARK    1  A    between atoms: O3_3  and  C7_12 
REMARK    2  A    between atoms: O4_4  and  C12_17 
REMARK    3  A    between atoms: O5_5  and  C15_20 
REMARK    4  A    between atoms: C1_6  and  C3_8 
ROOT
ATOM      1  O1  UNK     1      46.829  11.225  -6.790  1.00  0.00    -0.340 OA
ATOM      2  O2  UNK     1      49.055  12.552  -9.969  1.00  0.00    -0.292 OA
ATOM      3  C1  UNK     1      48.254  11.049  -6.812  1.00  0.00     0.169 C 
ATOM      4  C2  UNK     1      48.932  12.164  -7.605  1.00  0.00     0.121 C 
ATOM      5  C4  UNK     1      46.993  11.727  -9.170  1.00  0.00     0.076 A 
ATOM      6  C5  UNK     1      48.396  12.162  -9.014  1.00  0.00     0.167 C 
ATOM      7  C6  UNK     1      46.282  11.303  -8.044  1.00  0.00     0.089 A 
ATOM      8  C7  UNK     1      46.371  11.778 -10.420  1.00  0.00     0.085 A 
ATOM      9  C8  UNK     1      44.934  10.963  -8.163  1.00  0.00     0.074 A 
ATOM     10  C11 UNK     1      45.028  11.416 -10.537  1.00  0.00     0.074 A 
ATOM     11  C12 UNK     1      44.309  11.015  -9.410  1.00  0.00     0.071 A 
ENDROOT
BRANCH   3  12
ATOM     12  C3  UNK     1      48.754  11.014  -5.383  1.00  0.00    -0.028 A 
ATOM     13  C9  UNK     1      48.324  11.978  -4.471  1.00  0.00     0.012 A 
ATOM     14  C13 UNK     1      48.784  11.945  -3.154  1.00  0.00     0.037 A 
ATOM     15  C15 UNK     1      49.674  10.951  -2.751  1.00  0.00     0.065 A 
ATOM     16  C14 UNK     1      50.105   9.987  -3.664  1.00  0.00     0.037 A 
ATOM     17  C10 UNK     1      49.643  10.019  -4.980  1.00  0.00     0.012 A 
BRANCH  15  18
ATOM     18  O5  UNK     1      50.124  10.919  -1.467  1.00  0.00    -0.361 OA
ATOM     19  H12 UNK     1      49.745  10.144  -1.019  1.00  0.00     0.217 HD
ENDBRANCH  15  18
ENDBRANCH   3  12
BRANCH   8  20
ATOM     20  O3  UNK     1      47.019  12.178 -11.550  1.00  0.00    -0.360 OA
ATOM     21  H10 UNK     1      47.345  11.399 -12.030  1.00  0.00     0.217 HD
ENDBRANCH   8  20
BRANCH  11  22
ATOM     22  O4  UNK     1      42.997  10.670  -9.527  1.00  0.00    -0.361 OA
ATOM     23  H11 UNK     1      42.938   9.785  -9.927  1.00  0.00     0.217 HD
ENDBRANCH  11  22
TORSDOF 4
ENDMDL
