MODEL 1
REMARK VINA RESULT:      -9.0      0.000      0.000
REMARK  8 active torsions:
REMARK  status: ('A' for Active; 'I' for Inactive)
REMARK    1  A    between atoms: O2_2  and  C8_13 
REMARK    2  A    between atoms: O3_3  and  C9_14 
REMARK    3  A    between atoms: O4_4  and  C14_19 
REMARK    4  A    between atoms: O5_5  and  C15_20 
REMARK    5  A    between atoms: C1_6  and  C2_7 
REMARK    6  A    between atoms: C1_6  and  C3_8 
REMARK    7  A    between atoms: C2_7  and  C4_9 
REMARK    8  A    between atoms: C4_9  and  C5_10 
ROOT
ATOM      1  C5  UNK     1      39.972  14.803  -1.485  1.00  0.00     0.076 A 
ATOM      2  C8  UNK     1      41.166  14.265  -1.003  1.00  0.00     0.085 A 
ATOM      3  C9  UNK     1      38.779  14.096  -1.334  1.00  0.00     0.085 A 
ATOM      4  C10 UNK     1      41.166  13.021  -0.372  1.00  0.00     0.074 A 
ATOM      5  C11 UNK     1      38.778  12.853  -0.703  1.00  0.00     0.074 A 
ATOM      6  C14 UNK     1      39.973  12.315  -0.221  1.00  0.00     0.071 A 
ENDROOT
BRANCH   1   7
ATOM      7  C4  UNK     1      39.973  16.104  -2.144  1.00  0.00     0.165 C 
ATOM      8  O1  UNK     1      40.223  16.198  -3.362  1.00  0.00    -0.292 OA
BRANCH   7   9
ATOM      9  C2  UNK     1      39.666  17.373  -1.332  1.00  0.00     0.088 C 
BRANCH   9  10
ATOM     10  C1  UNK     1      39.740  18.655  -2.164  1.00  0.00     0.046 C 
BRANCH  10  11
ATOM     11  C3  UNK     1      39.632  19.886  -1.301  1.00  0.00    -0.058 A 
ATOM     12  C6  UNK     1      38.846  19.852  -0.160  1.00  0.00     0.010 A 
ATOM     13  C12 UNK     1      38.747  20.992   0.639  1.00  0.00     0.037 A 
ATOM     14  C15 UNK     1      39.435  22.153   0.286  1.00  0.00     0.065 A 
ATOM     15  C13 UNK     1      40.224  22.174  -0.865  1.00  0.00     0.037 A 
ATOM     16  C7  UNK     1      40.323  21.034  -1.663  1.00  0.00     0.010 A 
BRANCH  14  17
ATOM     17  O5  UNK     1      39.340  23.264   1.066  1.00  0.00    -0.361 OA
ATOM     18  H14 UNK     1      39.284  22.991   1.997  1.00  0.00     0.217 HD
ENDBRANCH  14  17
ENDBRANCH  10  11
ENDBRANCH   9  10
ENDBRANCH   7   9
ENDBRANCH   1   7
BRANCH   2  19
ATOM     19  O2  UNK     1      42.343  14.938  -1.139  1.00  0.00    -0.360 OA
ATOM     20  H11 UNK     1      42.363  15.428  -1.976  1.00  0.00     0.217 HD
ENDBRANCH   2  19
BRANCH   3  21
ATOM     21  O3  UNK     1      37.601  14.604  -1.797  1.00  0.00    -0.360 OA
ATOM     22  H12 UNK     1      37.730  15.538  -2.037  1.00  0.00     0.217 HD
ENDBRANCH   3  21
BRANCH   6  23
ATOM     23  O4  UNK     1      39.972  11.101   0.394  1.00  0.00    -0.361 OA
ATOM     24  H13 UNK     1      39.054  10.849   0.592  1.00  0.00     0.217 HD
ENDBRANCH   6  23
TORSDOF 8
ENDMDL
MODEL 2
REMARK VINA RESULT:      -9.0      0.005      1.863
REMARK  8 active torsions:
REMARK  status: ('A' for Active; 'I' for Inactive)
REMARK    1  A    between atoms: O2_2  and  C8_13 
REMARK    2  A    between atoms: O3_3  and  C9_14 
REMARK    3  A    between atoms: O4_4  and  C14_19 
REMARK    4  A    between atoms: O5_5  and  C15_20 
REMARK    5  A    between atoms: C1_6  and  C2_7 
REMARK    6  A    between atoms: C1_6  and  C3_8 
REMARK    7  A    between atoms: C2_7  and  C4_9 
REMARK    8  A    between atoms: C4_9  and  C5_10 
ROOT
ATOM      1  C5  UNK     1      39.974  14.803  -1.480  1.00  0.00     0.076 A 
ATOM      2  C8  UNK     1      38.780  14.098  -1.332  1.00  0.00     0.085 A 
ATOM      3  C9  UNK     1      41.166  14.264  -0.996  1.00  0.00     0.085 A 
ATOM      4  C10 UNK     1      38.777  12.854  -0.700  1.00  0.00     0.074 A 
ATOM      5  C11 UNK     1      41.164  13.021  -0.364  1.00  0.00     0.074 A 
ATOM      6  C14 UNK     1      39.969  12.315  -0.216  1.00  0.00     0.071 A 
ENDROOT
BRANCH   1   7
ATOM      7  C4  UNK     1      39.975  16.103  -2.141  1.00  0.00     0.165 C 
ATOM      8  O1  UNK     1      40.230  16.196  -3.358  1.00  0.00    -0.292 OA
BRANCH   7   9
ATOM      9  C2  UNK     1      39.663  17.373  -1.332  1.00  0.00     0.088 C 
BRANCH   9  10
ATOM     10  C1  UNK     1      39.747  18.655  -2.163  1.00  0.00     0.046 C 
BRANCH  10  11
ATOM     11  C3  UNK     1      39.637  19.886  -1.301  1.00  0.00    -0.058 A 
ATOM     12  C6  UNK     1      38.848  19.851  -0.161  1.00  0.00     0.010 A 
ATOM     13  C12 UNK     1      38.747  20.991   0.637  1.00  0.00     0.037 A 
ATOM     14  C15 UNK     1      39.434  22.153   0.285  1.00  0.00     0.065 A 
ATOM     15  C13 UNK     1      40.223  22.175  -0.866  1.00  0.00     0.037 A 
ATOM     16  C7  UNK     1      40.325  21.035  -1.663  1.00  0.00     0.010 A 
BRANCH  14  17
ATOM     17  O5  UNK     1      39.336  23.264   1.064  1.00  0.00    -0.361 OA
ATOM     18  H14 UNK     1      38.480  23.252   1.525  1.00  0.00     0.217 HD
ENDBRANCH  14  17
ENDBRANCH  10  11
ENDBRANCH   9  10
ENDBRANCH   7   9
ENDBRANCH   1   7
BRANCH   2  19
ATOM     19  O2  UNK     1      37.603  14.605  -1.797  1.00  0.00    -0.360 OA
ATOM     20  H11 UNK     1      37.188  15.174  -1.130  1.00  0.00     0.217 HD
ENDBRANCH   2  19
BRANCH   3  21
ATOM     21  O3  UNK     1      42.345  14.936  -1.131  1.00  0.00    -0.360 OA
ATOM     22  H12 UNK     1      43.065  14.294  -1.250  1.00  0.00     0.217 HD
ENDBRANCH   3  21
BRANCH   6  23
ATOM     23  O4  UNK     1      39.967  11.103   0.401  1.00  0.00    -0.361 OA
ATOM     24  H13 UNK     1      39.048  10.848   0.593  1.00  0.00     0.217 HD
ENDBRANCH   6  23
TORSDOF 8
ENDMDL
MODEL 3
REMARK VINA RESULT:      -8.9      0.012      1.081
REMARK  8 active torsions:
REMARK  status: ('A' for Active; 'I' for Inactive)
REMARK    1  A    between atoms: O2_2  and  C8_13 
REMARK    2  A    between atoms: O3_3  and  C9_14 
REMARK    3  A    between atoms: O4_4  and  C14_19 
REMARK    4  A    between atoms: O5_5  and  C15_20 
REMARK    5  A    between atoms: C1_6  and  C2_7 
REMARK    6  A    between atoms: C1_6  and  C3_8 
REMARK    7  A    between atoms: C2_7  and  C4_9 
REMARK    8  A    between atoms: C4_9  and  C5_10 
ROOT
ATOM      1  C5  UNK     1      39.970  14.808  -1.482  1.00  0.00     0.076 A 
ATOM      2  C8  UNK     1      41.165  14.272  -1.002  1.00  0.00     0.085 A 
ATOM      3  C9  UNK     1      38.779  14.099  -1.331  1.00  0.00     0.085 A 
ATOM      4  C10 UNK     1      41.169  13.027  -0.372  1.00  0.00     0.074 A 
ATOM      5  C11 UNK     1      38.781  12.855  -0.701  1.00  0.00     0.074 A 
ATOM      6  C14 UNK     1      39.977  12.319  -0.221  1.00  0.00     0.071 A 
ENDROOT
BRANCH   1   7
ATOM      7  C4  UNK     1      39.968  16.109  -2.140  1.00  0.00     0.165 C 
ATOM      8  O1  UNK     1      40.212  16.205  -3.358  1.00  0.00    -0.292 OA
BRANCH   7   9
ATOM      9  C2  UNK     1      39.664  17.378  -1.325  1.00  0.00     0.088 C 
BRANCH   9  10
ATOM     10  C1  UNK     1      39.726  18.660  -2.158  1.00  0.00     0.046 C 
BRANCH  10  11
ATOM     11  C3  UNK     1      39.623  19.891  -1.294  1.00  0.00    -0.058 A 
ATOM     12  C6  UNK     1      40.305  21.040  -1.661  1.00  0.00     0.010 A 
ATOM     13  C12 UNK     1      40.210  22.180  -0.862  1.00  0.00     0.037 A 
ATOM     14  C15 UNK     1      39.434  22.155   0.298  1.00  0.00     0.065 A 
ATOM     15  C13 UNK     1      38.754  20.991   0.657  1.00  0.00     0.037 A 
ATOM     16  C7  UNK     1      38.849  19.853  -0.143  1.00  0.00     0.010 A 
BRANCH  14  17
ATOM     17  O5  UNK     1      39.340  23.266   1.077  1.00  0.00    -0.361 OA
ATOM     18  H14 UNK     1      38.404  23.427   1.286  1.00  0.00     0.217 HD
ENDBRANCH  14  17
ENDBRANCH  10  11
ENDBRANCH   9  10
ENDBRANCH   7   9
ENDBRANCH   1   7
BRANCH   2  19
ATOM     19  O2  UNK     1      42.341  14.947  -1.138  1.00  0.00    -0.360 OA
ATOM     20  H11 UNK     1      43.057  14.342  -1.390  1.00  0.00     0.217 HD
ENDBRANCH   2  19
BRANCH   3  21
ATOM     21  O3  UNK     1      37.599  14.605  -1.793  1.00  0.00    -0.360 OA
ATOM     22  H12 UNK     1      37.744  14.998  -2.671  1.00  0.00     0.217 HD
ENDBRANCH   3  21
BRANCH   6  23
ATOM     23  O4  UNK     1      39.979  11.104   0.393  1.00  0.00    -0.361 OA
ATOM     24  H13 UNK     1      40.898  10.796   0.477  1.00  0.00     0.217 HD
ENDBRANCH   6  23
TORSDOF 8
ENDMDL
MODEL 4
REMARK VINA RESULT:      -8.9      0.027      2.154
REMARK  8 active torsions:
REMARK  status: ('A' for Active; 'I' for Inactive)
REMARK    1  A    between atoms: O2_2  and  C8_13 
REMARK    2  A    between atoms: O3_3  and  C9_14 
REMARK    3  A    between atoms: O4_4  and  C14_19 
REMARK    4  A    between atoms: O5_5  and  C15_20 
REMARK    5  A    between atoms: C1_6  and  C2_7 
REMARK    6  A    between atoms: C1_6  and  C3_8 
REMARK    7  A    between atoms: C2_7  and  C4_9 
REMARK    8  A    between atoms: C4_9  and  C5_10 
ROOT
ATOM      1  C5  UNK     1      39.949  14.798  -1.469  1.00  0.00     0.076 A 
ATOM      2  C8  UNK     1      38.758  14.090  -1.305  1.00  0.00     0.085 A 
ATOM      3  C9  UNK     1      41.148  14.263  -0.998  1.00  0.00     0.085 A 
ATOM      4  C10 UNK     1      38.765  12.849  -0.670  1.00  0.00     0.074 A 
ATOM      5  C11 UNK     1      41.156  13.021  -0.363  1.00  0.00     0.074 A 
ATOM      6  C14 UNK     1      39.964  12.313  -0.199  1.00  0.00     0.071 A 
ENDROOT
BRANCH   1   7
ATOM      7  C4  UNK     1      39.939  16.096  -2.133  1.00  0.00     0.165 C 
ATOM      8  O1  UNK     1      40.176  16.187  -3.353  1.00  0.00    -0.292 OA
BRANCH   7   9
ATOM      9  C2  UNK     1      39.638  17.368  -1.322  1.00  0.00     0.088 C 
BRANCH   9  10
ATOM     10  C1  UNK     1      39.738  18.650  -2.151  1.00  0.00     0.046 C 
BRANCH  10  11
ATOM     11  C3  UNK     1      39.630  19.881  -1.288  1.00  0.00    -0.058 A 
ATOM     12  C6  UNK     1      40.324  21.027  -1.645  1.00  0.00     0.010 A 
ATOM     13  C12 UNK     1      40.224  22.167  -0.846  1.00  0.00     0.037 A 
ATOM     14  C15 UNK     1      39.433  22.146   0.303  1.00  0.00     0.065 A 
ATOM     15  C13 UNK     1      38.740  20.986   0.652  1.00  0.00     0.037 A 
ATOM     16  C7  UNK     1      38.840  19.847  -0.148  1.00  0.00     0.010 A 
BRANCH  14  17
ATOM     17  O5  UNK     1      39.335  23.257   1.081  1.00  0.00    -0.361 OA
ATOM     18  H14 UNK     1      39.634  24.028   0.570  1.00  0.00     0.217 HD
ENDBRANCH  14  17
ENDBRANCH  10  11
ENDBRANCH   9  10
ENDBRANCH   7   9
ENDBRANCH   1   7
BRANCH   2  19
ATOM     19  O2  UNK     1      37.575  14.594  -1.758  1.00  0.00    -0.360 OA
ATOM     20  H11 UNK     1      37.060  14.970  -1.026  1.00  0.00     0.217 HD
ENDBRANCH   2  19
BRANCH   3  21
ATOM     21  O3  UNK     1      42.323  14.937  -1.148  1.00  0.00    -0.360 OA
ATOM     22  H12 UNK     1      42.503  15.448  -0.340  1.00  0.00     0.217 HD
ENDBRANCH   3  21
BRANCH   6  23
ATOM     23  O4  UNK     1      39.972  11.102   0.421  1.00  0.00    -0.361 OA
ATOM     24  H13 UNK     1      39.061  10.766   0.468  1.00  0.00     0.217 HD
ENDBRANCH   6  23
TORSDOF 8
ENDMDL
MODEL 5
REMARK VINA RESULT:      -8.5      0.949      2.173
REMARK  8 active torsions:
REMARK  status: ('A' for Active; 'I' for Inactive)
REMARK    1  A    between atoms: O2_2  and  C8_13 
REMARK    2  A    between atoms: O3_3  and  C9_14 
REMARK    3  A    between atoms: O4_4  and  C14_19 
REMARK    4  A    between atoms: O5_5  and  C15_20 
REMARK    5  A    between atoms: C1_6  and  C2_7 
REMARK    6  A    between atoms: C1_6  and  C3_8 
REMARK    7  A    between atoms: C2_7  and  C4_9 
REMARK    8  A    between atoms: C4_9  and  C5_10 
ROOT
ATOM      1  C5  UNK     1      40.192  14.248  -1.480  1.00  0.00     0.076 A 
ATOM      2  C8  UNK     1      39.237  13.335  -1.033  1.00  0.00     0.085 A 
ATOM      3  C9  UNK     1      41.497  14.186  -0.994  1.00  0.00     0.085 A 
ATOM      4  C10 UNK     1      39.588  12.360  -0.099  1.00  0.00     0.074 A 
ATOM      5  C11 UNK     1      41.849  13.211  -0.061  1.00  0.00     0.074 A 
ATOM      6  C14 UNK     1      40.894  12.298   0.387  1.00  0.00     0.071 A 
ENDROOT
BRANCH   1   7
ATOM      7  C4  UNK     1      39.824  15.267  -2.457  1.00  0.00     0.165 C 
ATOM      8  O1  UNK     1      39.423  14.944  -3.592  1.00  0.00    -0.292 OA
BRANCH   7   9
ATOM      9  C2  UNK     1      39.932  16.756  -2.086  1.00  0.00     0.088 C 
BRANCH   9  10
ATOM     10  C1  UNK     1      39.112  17.133  -0.851  1.00  0.00     0.046 C 
BRANCH  10  11
ATOM     11  C3  UNK     1      39.115  18.621  -0.613  1.00  0.00    -0.058 A 
ATOM     12  C6  UNK     1      38.438  19.138   0.481  1.00  0.00     0.010 A 
ATOM     13  C12 UNK     1      38.442  20.516   0.702  1.00  0.00     0.037 A 
ATOM     14  C15 UNK     1      39.121  21.361  -0.176  1.00  0.00     0.065 A 
ATOM     15  C13 UNK     1      39.798  20.828  -1.274  1.00  0.00     0.037 A 
ATOM     16  C7  UNK     1      39.795  19.451  -1.493  1.00  0.00     0.010 A 
BRANCH  14  17
ATOM     17  O5  UNK     1      39.126  22.704   0.039  1.00  0.00    -0.361 OA
ATOM     18  H14 UNK     1      38.417  23.111  -0.488  1.00  0.00     0.217 HD
ENDBRANCH  14  17
ENDBRANCH  10  11
ENDBRANCH   9  10
ENDBRANCH   7   9
ENDBRANCH   1   7
BRANCH   2  19
ATOM     19  O2  UNK     1      37.955  13.377  -1.495  1.00  0.00    -0.360 OA
ATOM     20  H11 UNK     1      37.325  13.400  -0.757  1.00  0.00     0.217 HD
ENDBRANCH   2  19
BRANCH   3  21
ATOM     21  O3  UNK     1      42.446  15.069  -1.418  1.00  0.00    -0.360 OA
ATOM     22  H12 UNK     1      43.103  15.194  -0.712  1.00  0.00     0.217 HD
ENDBRANCH   3  21
BRANCH   6  23
ATOM     23  O4  UNK     1      41.237  11.347   1.298  1.00  0.00    -0.361 OA
ATOM     24  H13 UNK     1      40.698  11.469   2.099  1.00  0.00     0.217 HD
ENDBRANCH   6  23
TORSDOF 8
ENDMDL
MODEL 6
REMARK VINA RESULT:      -8.2      2.072      7.106
REMARK  8 active torsions:
REMARK  status: ('A' for Active; 'I' for Inactive)
REMARK    1  A    between atoms: O2_2  and  C8_13 
REMARK    2  A    between atoms: O3_3  and  C9_14 
REMARK    3  A    between atoms: O4_4  and  C14_19 
REMARK    4  A    between atoms: O5_5  and  C15_20 
REMARK    5  A    between atoms: C1_6  and  C2_7 
REMARK    6  A    between atoms: C1_6  and  C3_8 
REMARK    7  A    between atoms: C2_7  and  C4_9 
REMARK    8  A    between atoms: C4_9  and  C5_10 
ROOT
ATOM      1  C5  UNK     1      39.858  16.761  -2.126  1.00  0.00     0.076 A 
ATOM      2  C8  UNK     1      39.166  16.855  -0.918  1.00  0.00     0.085 A 
ATOM      3  C9  UNK     1      40.197  17.919  -2.826  1.00  0.00     0.085 A 
ATOM      4  C10 UNK     1      38.812  18.106  -0.413  1.00  0.00     0.074 A 
ATOM      5  C11 UNK     1      39.844  19.169  -2.321  1.00  0.00     0.074 A 
ATOM      6  C14 UNK     1      39.150  19.263  -1.114  1.00  0.00     0.071 A 
ENDROOT
BRANCH   1   7
ATOM      7  C4  UNK     1      40.229  15.453  -2.653  1.00  0.00     0.165 C 
ATOM      8  O1  UNK     1      39.373  14.715  -3.179  1.00  0.00    -0.292 OA
BRANCH   7   9
ATOM      9  C2  UNK     1      41.688  14.976  -2.560  1.00  0.00     0.088 C 
BRANCH   9  10
ATOM     10  C1  UNK     1      42.149  14.721  -1.123  1.00  0.00     0.046 C 
BRANCH  10  11
ATOM     11  C3  UNK     1      41.610  13.420  -0.587  1.00  0.00    -0.058 A 
ATOM     12  C6  UNK     1      41.026  13.390   0.670  1.00  0.00     0.010 A 
ATOM     13  C12 UNK     1      40.527  12.185   1.166  1.00  0.00     0.037 A 
ATOM     14  C15 UNK     1      40.619  11.023   0.399  1.00  0.00     0.065 A 
ATOM     15  C13 UNK     1      41.209  11.067  -0.864  1.00  0.00     0.037 A 
ATOM     16  C7  UNK     1      41.707  12.272  -1.360  1.00  0.00     0.010 A 
BRANCH  14  17
ATOM     17  O5  UNK     1      40.131   9.849   0.882  1.00  0.00    -0.361 OA
ATOM     18  H14 UNK     1      39.404  10.040   1.499  1.00  0.00     0.217 HD
ENDBRANCH  14  17
ENDBRANCH  10  11
ENDBRANCH   9  10
ENDBRANCH   7   9
ENDBRANCH   1   7
BRANCH   2  19
ATOM     19  O2  UNK     1      38.825  15.737  -0.217  1.00  0.00    -0.360 OA
ATOM     20  H11 UNK     1      38.052  15.907   0.344  1.00  0.00     0.217 HD
ENDBRANCH   2  19
BRANCH   3  21
ATOM     21  O3  UNK     1      40.875  17.849  -4.008  1.00  0.00    -0.360 OA
ATOM     22  H12 UNK     1      41.479  17.087  -3.984  1.00  0.00     0.217 HD
ENDBRANCH   3  21
BRANCH   6  23
ATOM     23  O4  UNK     1      38.805  20.483  -0.621  1.00  0.00    -0.361 OA
ATOM     24  H13 UNK     1      37.844  20.602  -0.718  1.00  0.00     0.217 HD
ENDBRANCH   6  23
TORSDOF 8
ENDMDL
MODEL 7
REMARK VINA RESULT:      -8.1      1.737      2.854
REMARK  8 active torsions:
REMARK  status: ('A' for Active; 'I' for Inactive)
REMARK    1  A    between atoms: O2_2  and  C8_13 
REMARK    2  A    between atoms: O3_3  and  C9_14 
REMARK    3  A    between atoms: O4_4  and  C14_19 
REMARK    4  A    between atoms: O5_5  and  C15_20 
REMARK    5  A    between atoms: C1_6  and  C2_7 
REMARK    6  A    between atoms: C1_6  and  C3_8 
REMARK    7  A    between atoms: C2_7  and  C4_9 
REMARK    8  A    between atoms: C4_9  and  C5_10 
ROOT
ATOM      1  C5  UNK     1      40.156  13.190  -1.460  1.00  0.00     0.076 A 
ATOM      2  C8  UNK     1      39.078  12.953  -0.607  1.00  0.00     0.085 A 
ATOM      3  C9  UNK     1      41.296  12.391  -1.380  1.00  0.00     0.085 A 
ATOM      4  C10 UNK     1      39.140  11.919   0.326  1.00  0.00     0.074 A 
ATOM      5  C11 UNK     1      41.360  11.357  -0.447  1.00  0.00     0.074 A 
ATOM      6  C14 UNK     1      40.281  11.120   0.407  1.00  0.00     0.071 A 
ENDROOT
BRANCH   1   7
ATOM      7  C4  UNK     1      40.088  14.272  -2.436  1.00  0.00     0.165 C 
ATOM      8  O1  UNK     1      39.232  14.259  -3.341  1.00  0.00    -0.292 OA
BRANCH   7   9
ATOM      9  C2  UNK     1      41.085  15.440  -2.352  1.00  0.00     0.088 C 
BRANCH   9  10
ATOM     10  C1  UNK     1      40.547  16.738  -2.958  1.00  0.00     0.046 C 
BRANCH  10  11
ATOM     11  C3  UNK     1      39.876  17.601  -1.920  1.00  0.00    -0.058 A 
ATOM     12  C6  UNK     1      39.320  17.008  -0.796  1.00  0.00     0.010 A 
ATOM     13  C12 UNK     1      38.700  17.806   0.165  1.00  0.00     0.037 A 
ATOM     14  C15 UNK     1      38.641  19.190  -0.010  1.00  0.00     0.065 A 
ATOM     15  C13 UNK     1      39.204  19.774  -1.145  1.00  0.00     0.037 A 
ATOM     16  C7  UNK     1      39.825  18.975  -2.105  1.00  0.00     0.010 A 
BRANCH  14  17
ATOM     17  O5  UNK     1      38.037  19.968   0.927  1.00  0.00    -0.361 OA
ATOM     18  H14 UNK     1      38.282  20.896   0.773  1.00  0.00     0.217 HD
ENDBRANCH  14  17
ENDBRANCH  10  11
ENDBRANCH   9  10
ENDBRANCH   7   9
ENDBRANCH   1   7
BRANCH   2  19
ATOM     19  O2  UNK     1      37.953  13.721  -0.669  1.00  0.00    -0.360 OA
ATOM     20  H11 UNK     1      37.373  13.423  -1.388  1.00  0.00     0.217 HD
ENDBRANCH   2  19
BRANCH   3  21
ATOM     21  O3  UNK     1      42.361  12.605  -2.204  1.00  0.00    -0.360 OA
ATOM     22  H12 UNK     1      42.405  11.888  -2.860  1.00  0.00     0.217 HD
ENDBRANCH   3  21
BRANCH   6  23
ATOM     23  O4  UNK     1      40.344  10.111   1.317  1.00  0.00    -0.361 OA
ATOM     24  H13 UNK     1      40.201  10.480   2.206  1.00  0.00     0.217 HD
ENDBRANCH   6  23
TORSDOF 8
ENDMDL
MODEL 8
REMARK VINA RESULT:      -8.1      1.732      2.274
REMARK  8 active torsions:
REMARK  status: ('A' for Active; 'I' for Inactive)
REMARK    1  A    between atoms: O2_2  and  C8_13 
REMARK    2  A    between atoms: O3_3  and  C9_14 
REMARK    3  A    between atoms: O4_4  and  C14_19 
REMARK    4  A    between atoms: O5_5  and  C15_20 
REMARK    5  A    between atoms: C1_6  and  C2_7 
REMARK    6  A    between atoms: C1_6  and  C3_8 
REMARK    7  A    between atoms: C2_7  and  C4_9 
REMARK    8  A    between atoms: C4_9  and  C5_10 
ROOT
ATOM      1  C5  UNK     1      40.158  13.193  -1.465  1.00  0.00     0.076 A 
ATOM      2  C8  UNK     1      41.300  12.397  -1.385  1.00  0.00     0.085 A 
ATOM      3  C9  UNK     1      39.081  12.954  -0.612  1.00  0.00     0.085 A 
ATOM      4  C10 UNK     1      41.366  11.362  -0.453  1.00  0.00     0.074 A 
ATOM      5  C11 UNK     1      39.146  11.920   0.321  1.00  0.00     0.074 A 
ATOM      6  C14 UNK     1      40.289  11.123   0.401  1.00  0.00     0.071 A 
ENDROOT
BRANCH   1   7
ATOM      7  C4  UNK     1      40.090  14.275  -2.441  1.00  0.00     0.165 C 
ATOM      8  O1  UNK     1      39.242  14.255  -3.354  1.00  0.00    -0.292 OA
BRANCH   7   9
ATOM      9  C2  UNK     1      41.077  15.452  -2.347  1.00  0.00     0.088 C 
BRANCH   9  10
ATOM     10  C1  UNK     1      40.531  16.747  -2.951  1.00  0.00     0.046 C 
BRANCH  10  11
ATOM     11  C3  UNK     1      39.864  17.610  -1.910  1.00  0.00    -0.058 A 
ATOM     12  C6  UNK     1      39.306  17.016  -0.789  1.00  0.00     0.010 A 
ATOM     13  C12 UNK     1      38.689  17.815   0.175  1.00  0.00     0.037 A 
ATOM     14  C15 UNK     1      38.636  19.198   0.004  1.00  0.00     0.065 A 
ATOM     15  C13 UNK     1      39.201  19.783  -1.130  1.00  0.00     0.037 A 
ATOM     16  C7  UNK     1      39.819  18.984  -2.092  1.00  0.00     0.010 A 
BRANCH  14  17
ATOM     17  O5  UNK     1      38.036  19.977   0.944  1.00  0.00    -0.361 OA
ATOM     18  H14 UNK     1      37.592  19.404   1.592  1.00  0.00     0.217 HD
ENDBRANCH  14  17
ENDBRANCH  10  11
ENDBRANCH   9  10
ENDBRANCH   7   9
ENDBRANCH   1   7
BRANCH   2  19
ATOM     19  O2  UNK     1      42.364  12.613  -2.210  1.00  0.00    -0.360 OA
ATOM     20  H11 UNK     1      43.198  12.551  -1.716  1.00  0.00     0.217 HD
ENDBRANCH   2  19
BRANCH   3  21
ATOM     21  O3  UNK     1      37.955  13.721  -0.673  1.00  0.00    -0.360 OA
ATOM     22  H12 UNK     1      38.185  14.641  -0.458  1.00  0.00     0.217 HD
ENDBRANCH   3  21
BRANCH   6  23
ATOM     23  O4  UNK     1      40.352  10.113   1.311  1.00  0.00    -0.361 OA
ATOM     24  H13 UNK     1      40.185   9.269   0.857  1.00  0.00     0.217 HD
ENDBRANCH   6  23
TORSDOF 8
ENDMDL
MODEL 9
REMARK VINA RESULT:      -8.1      2.093      7.048
REMARK  8 active torsions:
REMARK  status: ('A' for Active; 'I' for Inactive)
REMARK    1  A    between atoms: O2_2  and  C8_13 
REMARK    2  A    between atoms: O3_3  and  C9_14 
REMARK    3  A    between atoms: O4_4  and  C14_19 
REMARK    4  A    between atoms: O5_5  and  C15_20 
REMARK    5  A    between atoms: C1_6  and  C2_7 
REMARK    6  A    between atoms: C1_6  and  C3_8 
REMARK    7  A    between atoms: C2_7  and  C4_9 
REMARK    8  A    between atoms: C4_9  and  C5_10 
ROOT
ATOM      1  C5  UNK     1      39.822  16.728  -2.135  1.00  0.00     0.076 A 
ATOM      2  C8  UNK     1      40.164  17.899  -2.811  1.00  0.00     0.085 A 
ATOM      3  C9  UNK     1      39.119  16.797  -0.932  1.00  0.00     0.085 A 
ATOM      4  C10 UNK     1      39.804  19.139  -2.283  1.00  0.00     0.074 A 
ATOM      5  C11 UNK     1      38.759  18.036  -0.404  1.00  0.00     0.074 A 
ATOM      6  C14 UNK     1      39.102  19.208  -1.080  1.00  0.00     0.071 A 
ENDROOT
BRANCH   1   7
ATOM      7  C4  UNK     1      40.198  15.432  -2.688  1.00  0.00     0.165 C 
ATOM      8  O1  UNK     1      39.351  14.712  -3.251  1.00  0.00    -0.292 OA
BRANCH   7   9
ATOM      9  C2  UNK     1      41.652  14.944  -2.573  1.00  0.00     0.088 C 
BRANCH   9  10
ATOM     10  C1  UNK     1      42.102  14.720  -1.128  1.00  0.00     0.046 C 
BRANCH  10  11
ATOM     11  C3  UNK     1      41.583  13.416  -0.579  1.00  0.00    -0.058 A 
ATOM     12  C6  UNK     1      41.685  12.265  -1.345  1.00  0.00     0.010 A 
ATOM     13  C12 UNK     1      41.205  11.058  -0.836  1.00  0.00     0.037 A 
ATOM     14  C15 UNK     1      40.627  11.017   0.433  1.00  0.00     0.065 A 
ATOM     15  C13 UNK     1      40.530  12.182   1.194  1.00  0.00     0.037 A 
ATOM     16  C7  UNK     1      41.011  13.389   0.685  1.00  0.00     0.010 A 
BRANCH  14  17
ATOM     17  O5  UNK     1      40.160   9.839   0.930  1.00  0.00    -0.361 OA
ATOM     18  H14 UNK     1      39.781   9.997   1.811  1.00  0.00     0.217 HD
ENDBRANCH  14  17
ENDBRANCH  10  11
ENDBRANCH   9  10
ENDBRANCH   7   9
ENDBRANCH   1   7
BRANCH   2  19
ATOM     19  O2  UNK     1      40.850  17.855  -3.988  1.00  0.00    -0.360 OA
ATOM     20  H11 UNK     1      40.295  18.170  -4.719  1.00  0.00     0.217 HD
ENDBRANCH   2  19
BRANCH   3  21
ATOM     21  O3  UNK     1      38.774  15.664  -0.256  1.00  0.00    -0.360 OA
ATOM     22  H12 UNK     1      39.555  15.325   0.215  1.00  0.00     0.217 HD
ENDBRANCH   3  21
BRANCH   6  23
ATOM     23  O4  UNK     1      38.751  20.418  -0.565  1.00  0.00    -0.361 OA
ATOM     24  H13 UNK     1      38.722  21.071  -1.285  1.00  0.00     0.217 HD
ENDBRANCH   6  23
TORSDOF 8
ENDMDL
MODEL 10
REMARK VINA RESULT:      -8.1      2.087      7.139
REMARK  8 active torsions:
REMARK  status: ('A' for Active; 'I' for Inactive)
REMARK    1  A    between atoms: O2_2  and  C8_13 
REMARK    2  A    between atoms: O3_3  and  C9_14 
REMARK    3  A    between atoms: O4_4  and  C14_19 
REMARK    4  A    between atoms: O5_5  and  C15_20 
REMARK    5  A    between atoms: C1_6  and  C2_7 
REMARK    6  A    between atoms: C1_6  and  C3_8 
REMARK    7  A    between atoms: C2_7  and  C4_9 
REMARK    8  A    between atoms: C4_9  and  C5_10 
ROOT
ATOM      1  C5  UNK     1      39.823  16.741  -2.136  1.00  0.00     0.076 A 
ATOM      2  C8  UNK     1      39.122  16.813  -0.932  1.00  0.00     0.085 A 
ATOM      3  C9  UNK     1      40.164  17.910  -2.815  1.00  0.00     0.085 A 
ATOM      4  C10 UNK     1      38.761  18.054  -0.409  1.00  0.00     0.074 A 
ATOM      5  C11 UNK     1      39.803  19.151  -2.293  1.00  0.00     0.074 A 
ATOM      6  C14 UNK     1      39.101  19.224  -1.089  1.00  0.00     0.071 A 
ENDROOT
BRANCH   1   7
ATOM      7  C4  UNK     1      40.201  15.442  -2.682  1.00  0.00     0.165 C 
ATOM      8  O1  UNK     1      39.355  14.720  -3.245  1.00  0.00    -0.292 OA
BRANCH   7   9
ATOM      9  C2  UNK     1      41.655  14.955  -2.561  1.00  0.00     0.088 C 
BRANCH   9  10
ATOM     10  C1  UNK     1      42.096  14.724  -1.115  1.00  0.00     0.046 C 
BRANCH  10  11
ATOM     11  C3  UNK     1      41.575  13.416  -0.576  1.00  0.00    -0.058 A 
ATOM     12  C6  UNK     1      41.683  12.269  -1.347  1.00  0.00     0.010 A 
ATOM     13  C12 UNK     1      41.201  11.059  -0.848  1.00  0.00     0.037 A 
ATOM     14  C15 UNK     1      40.614  11.010   0.418  1.00  0.00     0.065 A 
ATOM     15  C13 UNK     1      40.511  12.172   1.183  1.00  0.00     0.037 A 
ATOM     16  C7  UNK     1      40.994  13.382   0.684  1.00  0.00     0.010 A 
BRANCH  14  17
ATOM     17  O5  UNK     1      40.145   9.830   0.905  1.00  0.00    -0.361 OA
ATOM     18  H14 UNK     1      39.379   9.552   0.375  1.00  0.00     0.217 HD
ENDBRANCH  14  17
ENDBRANCH  10  11
ENDBRANCH   9  10
ENDBRANCH   7   9
ENDBRANCH   1   7
BRANCH   2  19
ATOM     19  O2  UNK     1      38.779  15.683  -0.251  1.00  0.00    -0.360 OA
ATOM     20  H11 UNK     1      39.502  15.036  -0.276  1.00  0.00     0.217 HD
ENDBRANCH   2  19
BRANCH   3  21
ATOM     21  O3  UNK     1      40.850  17.862  -3.993  1.00  0.00    -0.360 OA
ATOM     22  H12 UNK     1      40.314  18.277  -4.691  1.00  0.00     0.217 HD
ENDBRANCH   3  21
BRANCH   6  23
ATOM     23  O4  UNK     1      38.749  20.435  -0.579  1.00  0.00    -0.361 OA
ATOM     24  H13 UNK     1      37.924  20.728  -1.004  1.00  0.00     0.217 HD
ENDBRANCH   6  23
TORSDOF 8
ENDMDL
MODEL 11
REMARK VINA RESULT:      -8.0      1.665      7.618
REMARK  8 active torsions:
REMARK  status: ('A' for Active; 'I' for Inactive)
REMARK    1  A    between atoms: O2_2  and  C8_13 
REMARK    2  A    between atoms: O3_3  and  C9_14 
REMARK    3  A    between atoms: O4_4  and  C14_19 
REMARK    4  A    between atoms: O5_5  and  C15_20 
REMARK    5  A    between atoms: C1_6  and  C2_7 
REMARK    6  A    between atoms: C1_6  and  C3_8 
REMARK    7  A    between atoms: C2_7  and  C4_9 
REMARK    8  A    between atoms: C4_9  and  C5_10 
ROOT
ATOM      1  C5  UNK     1      39.089  18.180  -0.724  1.00  0.00     0.076 A 
ATOM      2  C8  UNK     1      38.423  18.770   0.350  1.00  0.00     0.085 A 
ATOM      3  C9  UNK     1      39.737  18.978  -1.666  1.00  0.00     0.085 A 
ATOM      4  C10 UNK     1      38.405  20.158   0.482  1.00  0.00     0.074 A 
ATOM      5  C11 UNK     1      39.719  20.366  -1.535  1.00  0.00     0.074 A 
ATOM      6  C14 UNK     1      39.053  20.957  -0.460  1.00  0.00     0.071 A 
ENDROOT
BRANCH   1   7
ATOM      7  C4  UNK     1      39.108  16.728  -0.861  1.00  0.00     0.165 C 
ATOM      8  O1  UNK     1      38.044  16.086  -0.968  1.00  0.00    -0.292 OA
BRANCH   7   9
ATOM      9  C2  UNK     1      40.450  15.978  -0.871  1.00  0.00     0.088 C 
BRANCH   9  10
ATOM     10  C1  UNK     1      40.465  14.778  -1.820  1.00  0.00     0.046 C 
BRANCH  10  11
ATOM     11  C3  UNK     1      40.593  13.476  -1.070  1.00  0.00    -0.058 A 
ATOM     12  C6  UNK     1      41.322  12.437  -1.628  1.00  0.00     0.010 A 
ATOM     13  C12 UNK     1      41.440  11.233  -0.934  1.00  0.00     0.037 A 
ATOM     14  C15 UNK     1      40.825  11.081   0.310  1.00  0.00     0.065 A 
ATOM     15  C13 UNK     1      40.094  12.134   0.859  1.00  0.00     0.037 A 
ATOM     16  C7  UNK     1      39.977  13.338   0.165  1.00  0.00     0.010 A 
BRANCH  14  17
ATOM     17  O5  UNK     1      40.942   9.907   0.987  1.00  0.00    -0.361 OA
ATOM     18  H14 UNK     1      41.678   9.978   1.617  1.00  0.00     0.217 HD
ENDBRANCH  14  17
ENDBRANCH  10  11
ENDBRANCH   9  10
ENDBRANCH   7   9
ENDBRANCH   1   7
BRANCH   2  19
ATOM     19  O2  UNK     1      37.783  18.008   1.282  1.00  0.00    -0.360 OA
ATOM     20  H11 UNK     1      37.907  17.064   1.097  1.00  0.00     0.217 HD
ENDBRANCH   2  19
BRANCH   3  21
ATOM     21  O3  UNK     1      40.394  18.422  -2.723  1.00  0.00    -0.360 OA
ATOM     22  H12 UNK     1      41.013  17.747  -2.394  1.00  0.00     0.217 HD
ENDBRANCH   3  21
BRANCH   6  23
ATOM     23  O4  UNK     1      39.035  22.311  -0.333  1.00  0.00    -0.361 OA
ATOM     24  H13 UNK     1      39.389  22.709  -1.147  1.00  0.00     0.217 HD
ENDBRANCH   6  23
TORSDOF 8
ENDMDL
MODEL 12
REMARK VINA RESULT:      -8.0      1.666      7.471
REMARK  8 active torsions:
REMARK  status: ('A' for Active; 'I' for Inactive)
REMARK    1  A    between atoms: O2_2  and  C8_13 
REMARK    2  A    between atoms: O3_3  and  C9_14 
REMARK    3  A    between atoms: O4_4  and  C14_19 
REMARK    4  A    between atoms: O5_5  and  C15_20 
REMARK    5  A    between atoms: C1_6  and  C2_7 
REMARK    6  A    between atoms: C1_6  and  C3_8 
REMARK    7  A    between atoms: C2_7  and  C4_9 
REMARK    8  A    between atoms: C4_9  and  C5_10 
ROOT
ATOM      1  C5  UNK     1      39.090  18.180  -0.721  1.00  0.00     0.076 A 
ATOM      2  C8  UNK     1      39.738  18.978  -1.664  1.00  0.00     0.085 A 
ATOM      3  C9  UNK     1      38.423  18.771   0.352  1.00  0.00     0.085 A 
ATOM      4  C10 UNK     1      39.721  20.366  -1.533  1.00  0.00     0.074 A 
ATOM      5  C11 UNK     1      38.405  20.159   0.484  1.00  0.00     0.074 A 
ATOM      6  C14 UNK     1      39.054  20.958  -0.459  1.00  0.00     0.071 A 
ENDROOT
BRANCH   1   7
ATOM      7  C4  UNK     1      39.108  16.728  -0.859  1.00  0.00     0.165 C 
ATOM      8  O1  UNK     1      38.045  16.087  -0.969  1.00  0.00    -0.292 OA
BRANCH   7   9
ATOM      9  C2  UNK     1      40.451  15.978  -0.867  1.00  0.00     0.088 C 
BRANCH   9  10
ATOM     10  C1  UNK     1      40.467  14.778  -1.816  1.00  0.00     0.046 C 
BRANCH  10  11
ATOM     11  C3  UNK     1      40.593  13.476  -1.067  1.00  0.00    -0.058 A 
ATOM     12  C6  UNK     1      39.980  13.339   0.169  1.00  0.00     0.010 A 
ATOM     13  C12 UNK     1      40.096  12.134   0.862  1.00  0.00     0.037 A 
ATOM     14  C15 UNK     1      40.826  11.080   0.311  1.00  0.00     0.065 A 
ATOM     15  C13 UNK     1      41.438  11.231  -0.933  1.00  0.00     0.037 A 
ATOM     16  C7  UNK     1      41.321  12.436  -1.626  1.00  0.00     0.010 A 
BRANCH  14  17
ATOM     17  O5  UNK     1      40.938   9.904   0.986  1.00  0.00    -0.361 OA
ATOM     18  H14 UNK     1      40.143   9.369   0.823  1.00  0.00     0.217 HD
ENDBRANCH  14  17
ENDBRANCH  10  11
ENDBRANCH   9  10
ENDBRANCH   7   9
ENDBRANCH   1   7
BRANCH   2  19
ATOM     19  O2  UNK     1      40.395  18.421  -2.721  1.00  0.00    -0.360 OA
ATOM     20  H11 UNK     1      41.331  18.278  -2.506  1.00  0.00     0.217 HD
ENDBRANCH   2  19
BRANCH   3  21
ATOM     21  O3  UNK     1      37.782  18.010   1.284  1.00  0.00    -0.360 OA
ATOM     22  H12 UNK     1      37.201  18.580   1.816  1.00  0.00     0.217 HD
ENDBRANCH   3  21
BRANCH   6  23
ATOM     23  O4  UNK     1      39.038  22.312  -0.330  1.00  0.00    -0.361 OA
ATOM     24  H13 UNK     1      39.266  22.544   0.586  1.00  0.00     0.217 HD
ENDBRANCH   6  23
TORSDOF 8
ENDMDL
MODEL 13
REMARK VINA RESULT:      -8.0      3.439      7.270
REMARK  8 active torsions:
REMARK  status: ('A' for Active; 'I' for Inactive)
REMARK    1  A    between atoms: O2_2  and  C8_13 
REMARK    2  A    between atoms: O3_3  and  C9_14 
REMARK    3  A    between atoms: O4_4  and  C14_19 
REMARK    4  A    between atoms: O5_5  and  C15_20 
REMARK    5  A    between atoms: C1_6  and  C2_7 
REMARK    6  A    between atoms: C1_6  and  C3_8 
REMARK    7  A    between atoms: C2_7  and  C4_9 
REMARK    8  A    between atoms: C4_9  and  C5_10 
ROOT
ATOM      1  C5  UNK     1      40.224  13.705  -1.166  1.00  0.00     0.076 A 
ATOM      2  C8  UNK     1      40.875  14.938  -1.189  1.00  0.00     0.085 A 
ATOM      3  C9  UNK     1      38.839  13.651  -1.010  1.00  0.00     0.085 A 
ATOM      4  C10 UNK     1      40.142  16.117  -1.057  1.00  0.00     0.074 A 
ATOM      5  C11 UNK     1      38.105  14.830  -0.878  1.00  0.00     0.074 A 
ATOM      6  C14 UNK     1      38.757  16.063  -0.901  1.00  0.00     0.071 A 
ENDROOT
BRANCH   1   7
ATOM      7  C4  UNK     1      40.992  12.473  -1.304  1.00  0.00     0.165 C 
ATOM      8  O1  UNK     1      41.532  12.180  -2.389  1.00  0.00    -0.292 OA
BRANCH   7   9
ATOM      9  C2  UNK     1      41.135  11.522  -0.104  1.00  0.00     0.088 C 
BRANCH   9  10
ATOM     10  C1  UNK     1      41.480  12.243   1.200  1.00  0.00     0.046 C 
BRANCH  10  11
ATOM     11  C3  UNK     1      40.598  11.792   2.336  1.00  0.00    -0.058 A 
ATOM     12  C6  UNK     1      40.023  10.531   2.294  1.00  0.00     0.010 A 
ATOM     13  C12 UNK     1      39.207  10.113   3.345  1.00  0.00     0.037 A 
ATOM     14  C15 UNK     1      38.974  10.963   4.428  1.00  0.00     0.065 A 
ATOM     15  C13 UNK     1      39.559  12.230   4.458  1.00  0.00     0.037 A 
ATOM     16  C7  UNK     1      40.375  12.646   3.407  1.00  0.00     0.010 A 
BRANCH  14  17
ATOM     17  O5  UNK     1      38.180  10.555   5.454  1.00  0.00    -0.361 OA
ATOM     18  H14 UNK     1      37.250  10.695   5.207  1.00  0.00     0.217 HD
ENDBRANCH  14  17
ENDBRANCH  10  11
ENDBRANCH   9  10
ENDBRANCH   7   9
ENDBRANCH   1   7
BRANCH   2  19
ATOM     19  O2  UNK     1      42.228  15.014  -1.340  1.00  0.00    -0.360 OA
ATOM     20  H11 UNK     1      42.469  14.992  -2.280  1.00  0.00     0.217 HD
ENDBRANCH   2  19
BRANCH   3  21
ATOM     21  O3  UNK     1      38.182  12.456  -0.985  1.00  0.00    -0.360 OA
ATOM     22  H12 UNK     1      38.429  11.975  -0.177  1.00  0.00     0.217 HD
ENDBRANCH   3  21
BRANCH   6  23
ATOM     23  O4  UNK     1      38.041  17.213  -0.772  1.00  0.00    -0.361 OA
ATOM     24  H13 UNK     1      37.132  17.055  -1.081  1.00  0.00     0.217 HD
ENDBRANCH   6  23
TORSDOF 8
ENDMDL
MODEL 14
REMARK VINA RESULT:      -7.9      3.458      7.509
REMARK  8 active torsions:
REMARK  status: ('A' for Active; 'I' for Inactive)
REMARK    1  A    between atoms: O2_2  and  C8_13 
REMARK    2  A    between atoms: O3_3  and  C9_14 
REMARK    3  A    between atoms: O4_4  and  C14_19 
REMARK    4  A    between atoms: O5_5  and  C15_20 
REMARK    5  A    between atoms: C1_6  and  C2_7 
REMARK    6  A    between atoms: C1_6  and  C3_8 
REMARK    7  A    between atoms: C2_7  and  C4_9 
REMARK    8  A    between atoms: C4_9  and  C5_10 
ROOT
ATOM      1  C5  UNK     1      40.239  13.666  -1.182  1.00  0.00     0.076 A 
ATOM      2  C8  UNK     1      38.856  13.625  -1.001  1.00  0.00     0.085 A 
ATOM      3  C9  UNK     1      40.897  14.893  -1.248  1.00  0.00     0.085 A 
ATOM      4  C10 UNK     1      38.133  14.812  -0.886  1.00  0.00     0.074 A 
ATOM      5  C11 UNK     1      40.175  16.080  -1.134  1.00  0.00     0.074 A 
ATOM      6  C14 UNK     1      38.791  16.040  -0.953  1.00  0.00     0.071 A 
ENDROOT
BRANCH   1   7
ATOM      7  C4  UNK     1      40.994  12.424  -1.301  1.00  0.00     0.165 C 
ATOM      8  O1  UNK     1      41.517  12.100  -2.385  1.00  0.00    -0.292 OA
BRANCH   7   9
ATOM      9  C2  UNK     1      41.146  11.501  -0.080  1.00  0.00     0.088 C 
BRANCH   9  10
ATOM     10  C1  UNK     1      41.452  12.257   1.214  1.00  0.00     0.046 C 
BRANCH  10  11
ATOM     11  C3  UNK     1      40.583  11.789   2.352  1.00  0.00    -0.058 A 
ATOM     12  C6  UNK     1      40.303  12.655   3.398  1.00  0.00     0.010 A 
ATOM     13  C12 UNK     1      39.497  12.221   4.452  1.00  0.00     0.037 A 
ATOM     14  C15 UNK     1      38.982  10.924   4.447  1.00  0.00     0.065 A 
ATOM     15  C13 UNK     1      39.272  10.062   3.389  1.00  0.00     0.037 A 
ATOM     16  C7  UNK     1      40.076  10.497   2.336  1.00  0.00     0.010 A 
BRANCH  14  17
ATOM     17  O5  UNK     1      38.196  10.501   5.473  1.00  0.00    -0.361 OA
ATOM     18  H14 UNK     1      38.346   9.552   5.616  1.00  0.00     0.217 HD
ENDBRANCH  14  17
ENDBRANCH  10  11
ENDBRANCH   9  10
ENDBRANCH   7   9
ENDBRANCH   1   7
BRANCH   2  19
ATOM     19  O2  UNK     1      38.192  12.436  -0.933  1.00  0.00    -0.360 OA
ATOM     20  H11 UNK     1      37.408  12.449  -1.504  1.00  0.00     0.217 HD
ENDBRANCH   2  19
BRANCH   3  21
ATOM     21  O3  UNK     1      42.248  14.955  -1.424  1.00  0.00    -0.360 OA
ATOM     22  H12 UNK     1      42.682  14.403  -0.751  1.00  0.00     0.217 HD
ENDBRANCH   3  21
BRANCH   6  23
ATOM     23  O4  UNK     1      38.086  17.198  -0.842  1.00  0.00    -0.361 OA
ATOM     24  H13 UNK     1      38.588  17.821  -0.289  1.00  0.00     0.217 HD
ENDBRANCH   6  23
TORSDOF 8
ENDMDL
MODEL 15
REMARK VINA RESULT:      -7.9      1.238      1.675
REMARK  8 active torsions:
REMARK  status: ('A' for Active; 'I' for Inactive)
REMARK    1  A    between atoms: O2_2  and  C8_13 
REMARK    2  A    between atoms: O3_3  and  C9_14 
REMARK    3  A    between atoms: O4_4  and  C14_19 
REMARK    4  A    between atoms: O5_5  and  C15_20 
REMARK    5  A    between atoms: C1_6  and  C2_7 
REMARK    6  A    between atoms: C1_6  and  C3_8 
REMARK    7  A    between atoms: C2_7  and  C4_9 
REMARK    8  A    between atoms: C4_9  and  C5_10 
ROOT
ATOM      1  C5  UNK     1      40.543  13.738  -0.940  1.00  0.00     0.076 A 
ATOM      2  C8  UNK     1      41.505  13.238  -0.063  1.00  0.00     0.085 A 
ATOM      3  C9  UNK     1      39.280  13.148  -0.998  1.00  0.00     0.085 A 
ATOM      4  C10 UNK     1      41.205  12.150   0.756  1.00  0.00     0.074 A 
ATOM      5  C11 UNK     1      38.979  12.060  -0.179  1.00  0.00     0.074 A 
ATOM      6  C14 UNK     1      39.943  11.560   0.698  1.00  0.00     0.071 A 
ENDROOT
BRANCH   1   7
ATOM      7  C4  UNK     1      40.857  14.877  -1.795  1.00  0.00     0.165 C 
ATOM      8  O1  UNK     1      41.910  14.899  -2.461  1.00  0.00    -0.292 OA
BRANCH   7   9
ATOM      9  C2  UNK     1      39.883  16.064  -1.876  1.00  0.00     0.088 C 
BRANCH   9  10
ATOM     10  C1  UNK     1      39.423  16.563  -0.504  1.00  0.00     0.046 C 
BRANCH  10  11
ATOM     11  C3  UNK     1      39.233  18.058  -0.490  1.00  0.00    -0.058 A 
ATOM     12  C6  UNK     1      38.471  18.639   0.512  1.00  0.00     0.010 A 
ATOM     13  C12 UNK     1      38.295  20.023   0.525  1.00  0.00     0.037 A 
ATOM     14  C15 UNK     1      38.881  20.810  -0.467  1.00  0.00     0.065 A 
ATOM     15  C13 UNK     1      39.645  20.213  -1.470  1.00  0.00     0.037 A 
ATOM     16  C7  UNK     1      39.821  18.829  -1.482  1.00  0.00     0.010 A 
BRANCH  14  17
ATOM     17  O5  UNK     1      38.711  22.159  -0.453  1.00  0.00    -0.361 OA
ATOM     18  H14 UNK     1      37.831  22.370  -0.810  1.00  0.00     0.217 HD
ENDBRANCH  14  17
ENDBRANCH  10  11
ENDBRANCH   9  10
ENDBRANCH   7   9
ENDBRANCH   1   7
BRANCH   2  19
ATOM     19  O2  UNK     1      42.746  13.799   0.011  1.00  0.00    -0.360 OA
ATOM     20  H11 UNK     1      43.221  13.479   0.794  1.00  0.00     0.217 HD
ENDBRANCH   2  19
BRANCH   3  21
ATOM     21  O3  UNK     1      38.324  13.622  -1.847  1.00  0.00    -0.360 OA
ATOM     22  H12 UNK     1      38.256  14.587  -1.744  1.00  0.00     0.217 HD
ENDBRANCH   3  21
BRANCH   6  23
ATOM     23  O4  UNK     1      39.650  10.498   1.496  1.00  0.00    -0.361 OA
ATOM     24  H13 UNK     1      39.245  10.823   2.318  1.00  0.00     0.217 HD
ENDBRANCH   6  23
TORSDOF 8
ENDMDL
MODEL 16
REMARK VINA RESULT:      -7.7      1.655      7.367
REMARK  8 active torsions:
REMARK  status: ('A' for Active; 'I' for Inactive)
REMARK    1  A    between atoms: O2_2  and  C8_13 
REMARK    2  A    between atoms: O3_3  and  C9_14 
REMARK    3  A    between atoms: O4_4  and  C14_19 
REMARK    4  A    between atoms: O5_5  and  C15_20 
REMARK    5  A    between atoms: C1_6  and  C2_7 
REMARK    6  A    between atoms: C1_6  and  C3_8 
REMARK    7  A    between atoms: C2_7  and  C4_9 
REMARK    8  A    between atoms: C4_9  and  C5_10 
ROOT
ATOM      1  C5  UNK     1      39.488  19.602  -1.112  1.00  0.00     0.076 A 
ATOM      2  C8  UNK     1      40.066  20.838  -1.402  1.00  0.00     0.085 A 
ATOM      3  C9  UNK     1      38.741  19.438   0.054  1.00  0.00     0.085 A 
ATOM      4  C10 UNK     1      39.896  21.910  -0.526  1.00  0.00     0.074 A 
ATOM      5  C11 UNK     1      38.571  20.509   0.930  1.00  0.00     0.074 A 
ATOM      6  C14 UNK     1      39.149  21.746   0.640  1.00  0.00     0.071 A 
ENDROOT
BRANCH   1   7
ATOM      7  C4  UNK     1      39.666  18.482  -2.030  1.00  0.00     0.165 C 
ATOM      8  O1  UNK     1      39.677  18.666  -3.262  1.00  0.00    -0.292 OA
BRANCH   7   9
ATOM      9  C2  UNK     1      39.838  17.058  -1.474  1.00  0.00     0.088 C 
BRANCH   9  10
ATOM     10  C1  UNK     1      40.360  16.063  -2.512  1.00  0.00     0.046 C 
BRANCH  10  11
ATOM     11  C3  UNK     1      40.526  14.683  -1.928  1.00  0.00    -0.058 A 
ATOM     12  C6  UNK     1      39.440  14.059  -1.335  1.00  0.00     0.010 A 
ATOM     13  C12 UNK     1      39.594  12.781  -0.795  1.00  0.00     0.037 A 
ATOM     14  C15 UNK     1      40.834  12.145  -0.852  1.00  0.00     0.065 A 
ATOM     15  C13 UNK     1      41.920  12.785  -1.450  1.00  0.00     0.037 A 
ATOM     16  C7  UNK     1      41.765  14.061  -1.991  1.00  0.00     0.010 A 
BRANCH  14  17
ATOM     17  O5  UNK     1      40.984  10.899  -0.326  1.00  0.00    -0.361 OA
ATOM     18  H14 UNK     1      41.910  10.780  -0.056  1.00  0.00     0.217 HD
ENDBRANCH  14  17
ENDBRANCH  10  11
ENDBRANCH   9  10
ENDBRANCH   7   9
ENDBRANCH   1   7
BRANCH   2  19
ATOM     19  O2  UNK     1      40.799  21.020  -2.537  1.00  0.00    -0.360 OA
ATOM     20  H11 UNK     1      40.420  20.518  -3.275  1.00  0.00     0.217 HD
ENDBRANCH   2  19
BRANCH   3  21
ATOM     21  O3  UNK     1      38.168  18.238   0.356  1.00  0.00    -0.360 OA
ATOM     22  H12 UNK     1      37.767  17.865  -0.448  1.00  0.00     0.217 HD
ENDBRANCH   3  21
BRANCH   6  23
ATOM     23  O4  UNK     1      38.984  22.791   1.496  1.00  0.00    -0.361 OA
ATOM     24  H13 UNK     1      38.530  22.474   2.296  1.00  0.00     0.217 HD
ENDBRANCH   6  23
TORSDOF 8
ENDMDL
MODEL 17
REMARK VINA RESULT:      -7.7      1.651      7.484
REMARK  8 active torsions:
REMARK  status: ('A' for Active; 'I' for Inactive)
REMARK    1  A    between atoms: O2_2  and  C8_13 
REMARK    2  A    between atoms: O3_3  and  C9_14 
REMARK    3  A    between atoms: O4_4  and  C14_19 
REMARK    4  A    between atoms: O5_5  and  C15_20 
REMARK    5  A    between atoms: C1_6  and  C2_7 
REMARK    6  A    between atoms: C1_6  and  C3_8 
REMARK    7  A    between atoms: C2_7  and  C4_9 
REMARK    8  A    between atoms: C4_9  and  C5_10 
ROOT
ATOM      1  C5  UNK     1      39.485  19.598  -1.108  1.00  0.00     0.076 A 
ATOM      2  C8  UNK     1      38.735  19.432   0.057  1.00  0.00     0.085 A 
ATOM      3  C9  UNK     1      40.061  20.835  -1.397  1.00  0.00     0.085 A 
ATOM      4  C10 UNK     1      38.561  20.504   0.932  1.00  0.00     0.074 A 
ATOM      5  C11 UNK     1      39.887  21.907  -0.522  1.00  0.00     0.074 A 
ATOM      6  C14 UNK     1      39.137  21.741   0.643  1.00  0.00     0.071 A 
ENDROOT
BRANCH   1   7
ATOM      7  C4  UNK     1      39.667  18.476  -2.022  1.00  0.00     0.165 C 
ATOM      8  O1  UNK     1      39.677  18.657  -3.255  1.00  0.00    -0.292 OA
BRANCH   7   9
ATOM      9  C2  UNK     1      39.847  17.055  -1.463  1.00  0.00     0.088 C 
BRANCH   9  10
ATOM     10  C1  UNK     1      40.326  16.048  -2.511  1.00  0.00     0.046 C 
BRANCH  10  11
ATOM     11  C3  UNK     1      40.501  14.672  -1.923  1.00  0.00    -0.058 A 
ATOM     12  C6  UNK     1      39.419  14.042  -1.329  1.00  0.00     0.010 A 
ATOM     13  C12 UNK     1      39.582  12.767  -0.784  1.00  0.00     0.037 A 
ATOM     14  C15 UNK     1      40.826  12.138  -0.840  1.00  0.00     0.065 A 
ATOM     15  C13 UNK     1      41.907  12.784  -1.441  1.00  0.00     0.037 A 
ATOM     16  C7  UNK     1      41.744  14.058  -1.986  1.00  0.00     0.010 A 
BRANCH  14  17
ATOM     17  O5  UNK     1      40.985  10.895  -0.311  1.00  0.00    -0.361 OA
ATOM     18  H14 UNK     1      41.799  10.879   0.219  1.00  0.00     0.217 HD
ENDBRANCH  14  17
ENDBRANCH  10  11
ENDBRANCH   9  10
ENDBRANCH   7   9
ENDBRANCH   1   7
BRANCH   2  19
ATOM     19  O2  UNK     1      38.164  18.232   0.359  1.00  0.00    -0.360 OA
ATOM     20  H11 UNK     1      38.773  17.503   0.159  1.00  0.00     0.217 HD
ENDBRANCH   2  19
BRANCH   3  21
ATOM     21  O3  UNK     1      40.798  21.017  -2.529  1.00  0.00    -0.360 OA
ATOM     22  H12 UNK     1      41.725  20.787  -2.346  1.00  0.00     0.217 HD
ENDBRANCH   3  21
BRANCH   6  23
ATOM     23  O4  UNK     1      38.966  22.788   1.496  1.00  0.00    -0.361 OA
ATOM     24  H13 UNK     1      39.157  23.615   1.022  1.00  0.00     0.217 HD
ENDBRANCH   6  23
TORSDOF 8
ENDMDL
MODEL 18
REMARK VINA RESULT:      -7.0      2.326      6.978
REMARK  8 active torsions:
REMARK  status: ('A' for Active; 'I' for Inactive)
REMARK    1  A    between atoms: O2_2  and  C8_13 
REMARK    2  A    between atoms: O3_3  and  C9_14 
REMARK    3  A    between atoms: O4_4  and  C14_19 
REMARK    4  A    between atoms: O5_5  and  C15_20 
REMARK    5  A    between atoms: C1_6  and  C2_7 
REMARK    6  A    between atoms: C1_6  and  C3_8 
REMARK    7  A    between atoms: C2_7  and  C4_9 
REMARK    8  A    between atoms: C4_9  and  C5_10 
ROOT
ATOM      1  C5  UNK     1      39.439  15.860  -2.028  1.00  0.00     0.076 A 
ATOM      2  C8  UNK     1      40.098  17.022  -2.429  1.00  0.00     0.085 A 
ATOM      3  C9  UNK     1      38.573  15.893  -0.934  1.00  0.00     0.085 A 
ATOM      4  C10 UNK     1      39.893  18.215  -1.737  1.00  0.00     0.074 A 
ATOM      5  C11 UNK     1      38.367  17.086  -0.243  1.00  0.00     0.074 A 
ATOM      6  C14 UNK     1      39.027  18.248  -0.644  1.00  0.00     0.071 A 
ENDROOT
BRANCH   1   7
ATOM      7  C4  UNK     1      39.654  14.613  -2.752  1.00  0.00     0.165 C 
ATOM      8  O1  UNK     1      38.982  14.343  -3.766  1.00  0.00    -0.292 OA
BRANCH   7   9
ATOM      9  C2  UNK     1      40.719  13.618  -2.261  1.00  0.00     0.088 C 
BRANCH   9  10
ATOM     10  C1  UNK     1      41.248  13.940  -0.862  1.00  0.00     0.046 C 
BRANCH  10  11
ATOM     11  C3  UNK     1      40.957  12.829   0.114  1.00  0.00    -0.058 A 
ATOM     12  C6  UNK     1      40.559  13.141   1.404  1.00  0.00     0.010 A 
ATOM     13  C12 UNK     1      40.289  12.112   2.307  1.00  0.00     0.037 A 
ATOM     14  C15 UNK     1      40.422  10.782   1.908  1.00  0.00     0.065 A 
ATOM     15  C13 UNK     1      40.823  10.481   0.606  1.00  0.00     0.037 A 
ATOM     16  C7  UNK     1      41.092  11.510  -0.296  1.00  0.00     0.010 A 
BRANCH  14  17
ATOM     17  O5  UNK     1      40.157   9.778   2.788  1.00  0.00    -0.361 OA
ATOM     18  H14 UNK     1      39.361   9.304   2.496  1.00  0.00     0.217 HD
ENDBRANCH  14  17
ENDBRANCH  10  11
ENDBRANCH   9  10
ENDBRANCH   7   9
ENDBRANCH   1   7
BRANCH   2  19
ATOM     19  O2  UNK     1      40.948  17.013  -3.495  1.00  0.00    -0.360 OA
ATOM     20  H11 UNK     1      41.187  17.919  -3.750  1.00  0.00     0.217 HD
ENDBRANCH   2  19
BRANCH   3  21
ATOM     21  O3  UNK     1      37.918  14.769  -0.526  1.00  0.00    -0.360 OA
ATOM     22  H12 UNK     1      38.512  14.004  -0.617  1.00  0.00     0.217 HD
ENDBRANCH   3  21
BRANCH   6  23
ATOM     23  O4  UNK     1      38.826  19.412   0.031  1.00  0.00    -0.361 OA
ATOM     24  H13 UNK     1      39.681  19.864   0.142  1.00  0.00     0.217 HD
ENDBRANCH   6  23
TORSDOF 8
ENDMDL
MODEL 19
REMARK VINA RESULT:      -7.0      2.160      3.240
REMARK  8 active torsions:
REMARK  status: ('A' for Active; 'I' for Inactive)
REMARK    1  A    between atoms: O2_2  and  C8_13 
REMARK    2  A    between atoms: O3_3  and  C9_14 
REMARK    3  A    between atoms: O4_4  and  C14_19 
REMARK    4  A    between atoms: O5_5  and  C15_20 
REMARK    5  A    between atoms: C1_6  and  C2_7 
REMARK    6  A    between atoms: C1_6  and  C3_8 
REMARK    7  A    between atoms: C2_7  and  C4_9 
REMARK    8  A    between atoms: C4_9  and  C5_10 
ROOT
ATOM      1  C5  UNK     1      40.987  12.562  -0.472  1.00  0.00     0.076 A 
ATOM      2  C8  UNK     1      41.331  11.225  -0.670  1.00  0.00     0.085 A 
ATOM      3  C9  UNK     1      40.512  12.983   0.770  1.00  0.00     0.085 A 
ATOM      4  C10 UNK     1      41.200  10.309   0.373  1.00  0.00     0.074 A 
ATOM      5  C11 UNK     1      40.381  12.068   1.814  1.00  0.00     0.074 A 
ATOM      6  C14 UNK     1      40.725  10.730   1.615  1.00  0.00     0.071 A 
ENDROOT
BRANCH   1   7
ATOM      7  C4  UNK     1      41.125  13.520  -1.564  1.00  0.00     0.165 C 
ATOM      8  O1  UNK     1      42.251  13.822  -2.004  1.00  0.00    -0.292 OA
BRANCH   7   9
ATOM      9  C2  UNK     1      39.872  14.166  -2.178  1.00  0.00     0.088 C 
BRANCH   9  10
ATOM     10  C1  UNK     1      40.179  15.416  -3.005  1.00  0.00     0.046 C 
BRANCH  10  11
ATOM     11  C3  UNK     1      39.862  16.678  -2.245  1.00  0.00    -0.058 A 
ATOM     12  C6  UNK     1      39.287  16.590  -0.987  1.00  0.00     0.010 A 
ATOM     13  C12 UNK     1      38.993  17.759  -0.284  1.00  0.00     0.037 A 
ATOM     14  C15 UNK     1      39.277  19.003  -0.849  1.00  0.00     0.065 A 
ATOM     15  C13 UNK     1      39.855  19.077  -2.117  1.00  0.00     0.037 A 
ATOM     16  C7  UNK     1      40.149  17.909  -2.818  1.00  0.00     0.010 A 
BRANCH  14  17
ATOM     17  O5  UNK     1      38.992  20.143  -0.163  1.00  0.00    -0.361 OA
ATOM     18  H14 UNK     1      38.973  19.942   0.788  1.00  0.00     0.217 HD
ENDBRANCH  14  17
ENDBRANCH  10  11
ENDBRANCH   9  10
ENDBRANCH   7   9
ENDBRANCH   1   7
BRANCH   2  19
ATOM     19  O2  UNK     1      41.798  10.792  -1.876  1.00  0.00    -0.360 OA
ATOM     20  H11 UNK     1      42.139   9.887  -1.806  1.00  0.00     0.217 HD
ENDBRANCH   2  19
BRANCH   3  21
ATOM     21  O3  UNK     1      40.171  14.286   0.985  1.00  0.00    -0.360 OA
ATOM     22  H12 UNK     1      40.959  14.845   0.867  1.00  0.00     0.217 HD
ENDBRANCH   3  21
BRANCH   6  23
ATOM     23  O4  UNK     1      40.596   9.837   2.634  1.00  0.00    -0.361 OA
ATOM     24  H13 UNK     1      40.195  10.286   3.398  1.00  0.00     0.217 HD
ENDBRANCH   6  23
TORSDOF 8
ENDMDL
MODEL 20
REMARK VINA RESULT:      -7.0      3.218      6.461
REMARK  8 active torsions:
REMARK  status: ('A' for Active; 'I' for Inactive)
REMARK    1  A    between atoms: O2_2  and  C8_13 
REMARK    2  A    between atoms: O3_3  and  C9_14 
REMARK    3  A    between atoms: O4_4  and  C14_19 
REMARK    4  A    between atoms: O5_5  and  C15_20 
REMARK    5  A    between atoms: C1_6  and  C2_7 
REMARK    6  A    between atoms: C1_6  and  C3_8 
REMARK    7  A    between atoms: C2_7  and  C4_9 
REMARK    8  A    between atoms: C4_9  and  C5_10 
ROOT
ATOM      1  C5  UNK     1      39.691  15.682  -2.073  1.00  0.00     0.076 A 
ATOM      2  C8  UNK     1      39.298  16.542  -1.048  1.00  0.00     0.085 A 
ATOM      3  C9  UNK     1      38.874  14.612  -2.438  1.00  0.00     0.085 A 
ATOM      4  C10 UNK     1      38.088  16.332  -0.387  1.00  0.00     0.074 A 
ATOM      5  C11 UNK     1      37.664  14.402  -1.778  1.00  0.00     0.074 A 
ATOM      6  C14 UNK     1      37.270  15.263  -0.752  1.00  0.00     0.071 A 
ENDROOT
BRANCH   1   7
ATOM      7  C4  UNK     1      40.957  15.903  -2.764  1.00  0.00     0.165 C 
ATOM      8  O1  UNK     1      41.084  16.843  -3.571  1.00  0.00    -0.292 OA
BRANCH   7   9
ATOM      9  C2  UNK     1      42.147  14.965  -2.497  1.00  0.00     0.088 C 
BRANCH   9  10
ATOM     10  C1  UNK     1      42.394  14.712  -1.009  1.00  0.00     0.046 C 
BRANCH  10  11
ATOM     11  C3  UNK     1      41.760  13.424  -0.550  1.00  0.00    -0.058 A 
ATOM     12  C6  UNK     1      41.874  12.289  -1.338  1.00  0.00     0.010 A 
ATOM     13  C12 UNK     1      41.287  11.097  -0.913  1.00  0.00     0.037 A 
ATOM     14  C15 UNK     1      40.590  11.054   0.295  1.00  0.00     0.065 A 
ATOM     15  C13 UNK     1      40.481  12.204   1.078  1.00  0.00     0.037 A 
ATOM     16  C7  UNK     1      41.069  13.395   0.653  1.00  0.00     0.010 A 
BRANCH  14  17
ATOM     17  O5  UNK     1      40.018   9.892   0.710  1.00  0.00    -0.361 OA
ATOM     18  H14 UNK     1      39.594   9.460  -0.051  1.00  0.00     0.217 HD
ENDBRANCH  14  17
ENDBRANCH  10  11
ENDBRANCH   9  10
ENDBRANCH   7   9
ENDBRANCH   1   7
BRANCH   2  19
ATOM     19  O2  UNK     1      40.081  17.594  -0.676  1.00  0.00    -0.360 OA
ATOM     20  H11 UNK     1      40.329  17.522   0.260  1.00  0.00     0.217 HD
ENDBRANCH   2  19
BRANCH   3  21
ATOM     21  O3  UNK     1      39.239  13.760  -3.438  1.00  0.00    -0.360 OA
ATOM     22  H12 UNK     1      39.848  13.092  -3.079  1.00  0.00     0.217 HD
ENDBRANCH   3  21
BRANCH   6  23
ATOM     23  O4  UNK     1      36.089  15.057  -0.108  1.00  0.00    -0.361 OA
ATOM     24  H13 UNK     1      35.788  14.149  -0.284  1.00  0.00     0.217 HD
ENDBRANCH   6  23
TORSDOF 8
ENDMDL
