MODEL 1
REMARK VINA RESULT:      -5.9      0.000      0.000
REMARK  8 active torsions:
REMARK  status: ('A' for Active; 'I' for Inactive)
REMARK    1  A    between atoms: O2_2  and  C8_13 
REMARK    2  A    between atoms: O3_3  and  C9_14 
REMARK    3  A    between atoms: O4_4  and  C14_19 
REMARK    4  A    between atoms: O5_5  and  C15_20 
REMARK    5  A    between atoms: C1_6  and  C2_7 
REMARK    6  A    between atoms: C1_6  and  C3_8 
REMARK    7  A    between atoms: C2_7  and  C4_9 
REMARK    8  A    between atoms: C4_9  and  C5_10 
ROOT
ATOM      1  C5  UNK     1      41.136   0.616   8.837  1.00  0.00     0.076 A 
ATOM      2  C8  UNK     1      40.198  -0.317   8.395  1.00  0.00     0.085 A 
ATOM      3  C9  UNK     1      41.115   1.917   8.334  1.00  0.00     0.085 A 
ATOM      4  C10 UNK     1      39.240   0.050   7.450  1.00  0.00     0.074 A 
ATOM      5  C11 UNK     1      40.157   2.285   7.390  1.00  0.00     0.074 A 
ATOM      6  C14 UNK     1      39.219   1.351   6.947  1.00  0.00     0.071 A 
ENDROOT
BRANCH   1   7
ATOM      7  C4  UNK     1      42.136   0.231   9.826  1.00  0.00     0.165 C 
ATOM      8  O1  UNK     1      41.869   0.253  11.043  1.00  0.00    -0.292 OA
BRANCH   7   9
ATOM      9  C2  UNK     1      43.538  -0.205   9.365  1.00  0.00     0.088 C 
BRANCH   9  10
ATOM     10  C1  UNK     1      44.664   0.617   9.996  1.00  0.00     0.046 C 
BRANCH  10  11
ATOM     11  C3  UNK     1      45.644   1.105   8.960  1.00  0.00    -0.058 A 
ATOM     12  C6  UNK     1      46.998   0.867   9.138  1.00  0.00     0.010 A 
ATOM     13  C12 UNK     1      47.906   1.318   8.179  1.00  0.00     0.037 A 
ATOM     14  C15 UNK     1      47.448   2.004   7.054  1.00  0.00     0.065 A 
ATOM     15  C13 UNK     1      46.083   2.238   6.887  1.00  0.00     0.037 A 
ATOM     16  C7  UNK     1      45.176   1.786   7.845  1.00  0.00     0.010 A 
BRANCH  14  17
ATOM     17  O5  UNK     1      48.333   2.443   6.118  1.00  0.00    -0.361 OA
ATOM     18  H14 UNK     1      48.615   1.690   5.573  1.00  0.00     0.217 HD
ENDBRANCH  14  17
ENDBRANCH  10  11
ENDBRANCH   9  10
ENDBRANCH   7   9
ENDBRANCH   1   7
BRANCH   2  19
ATOM     19  O2  UNK     1      40.199  -1.594   8.874  1.00  0.00    -0.360 OA
ATOM     20  H11 UNK     1      40.185  -1.596   9.844  1.00  0.00     0.217 HD
ENDBRANCH   2  19
BRANCH   3  21
ATOM     21  O3  UNK     1      42.022   2.845   8.754  1.00  0.00    -0.360 OA
ATOM     22  H12 UNK     1      42.193   3.472   8.030  1.00  0.00     0.217 HD
ENDBRANCH   3  21
BRANCH   6  23
ATOM     23  O4  UNK     1      38.286   1.710   6.025  1.00  0.00    -0.361 OA
ATOM     24  H13 UNK     1      37.580   1.041   6.014  1.00  0.00     0.217 HD
ENDBRANCH   6  23
TORSDOF 8
ENDMDL
MODEL 2
REMARK VINA RESULT:      -5.9      0.033      2.154
REMARK  8 active torsions:
REMARK  status: ('A' for Active; 'I' for Inactive)
REMARK    1  A    between atoms: O2_2  and  C8_13 
REMARK    2  A    between atoms: O3_3  and  C9_14 
REMARK    3  A    between atoms: O4_4  and  C14_19 
REMARK    4  A    between atoms: O5_5  and  C15_20 
REMARK    5  A    between atoms: C1_6  and  C2_7 
REMARK    6  A    between atoms: C1_6  and  C3_8 
REMARK    7  A    between atoms: C2_7  and  C4_9 
REMARK    8  A    between atoms: C4_9  and  C5_10 
ROOT
ATOM      1  C5  UNK     1      41.142   0.634   8.840  1.00  0.00     0.076 A 
ATOM      2  C8  UNK     1      41.112   1.941   8.354  1.00  0.00     0.085 A 
ATOM      3  C9  UNK     1      40.211  -0.300   8.384  1.00  0.00     0.085 A 
ATOM      4  C10 UNK     1      40.153   2.314   7.414  1.00  0.00     0.074 A 
ATOM      5  C11 UNK     1      39.252   0.072   7.444  1.00  0.00     0.074 A 
ATOM      6  C14 UNK     1      39.222   1.381   6.958  1.00  0.00     0.071 A 
ENDROOT
BRANCH   1   7
ATOM      7  C4  UNK     1      42.146   0.245   9.824  1.00  0.00     0.165 C 
ATOM      8  O1  UNK     1      41.880   0.255  11.041  1.00  0.00    -0.292 OA
BRANCH   7   9
ATOM      9  C2  UNK     1      43.549  -0.180   9.357  1.00  0.00     0.088 C 
BRANCH   9  10
ATOM     10  C1  UNK     1      44.672   0.640   9.994  1.00  0.00     0.046 C 
BRANCH  10  11
ATOM     11  C3  UNK     1      45.661   1.124   8.966  1.00  0.00    -0.058 A 
ATOM     12  C6  UNK     1      45.205   1.808   7.850  1.00  0.00     0.010 A 
ATOM     13  C12 UNK     1      46.121   2.256   6.898  1.00  0.00     0.037 A 
ATOM     14  C15 UNK     1      47.484   2.012   7.072  1.00  0.00     0.065 A 
ATOM     15  C13 UNK     1      47.930   1.321   8.200  1.00  0.00     0.037 A 
ATOM     16  C7  UNK     1      47.014   0.875   9.151  1.00  0.00     0.010 A 
BRANCH  14  17
ATOM     17  O5  UNK     1      48.378   2.450   6.145  1.00  0.00    -0.361 OA
ATOM     18  H14 UNK     1      48.889   1.691   5.816  1.00  0.00     0.217 HD
ENDBRANCH  14  17
ENDBRANCH  10  11
ENDBRANCH   9  10
ENDBRANCH   7   9
ENDBRANCH   1   7
BRANCH   2  19
ATOM     19  O2  UNK     1      42.012   2.870   8.785  1.00  0.00    -0.360 OA
ATOM     20  H11 UNK     1      41.581   3.730   8.916  1.00  0.00     0.217 HD
ENDBRANCH   2  19
BRANCH   3  21
ATOM     21  O3  UNK     1      40.223  -1.583   8.846  1.00  0.00    -0.360 OA
ATOM     22  H12 UNK     1      40.635  -2.158   8.177  1.00  0.00     0.217 HD
ENDBRANCH   3  21
BRANCH   6  23
ATOM     23  O4  UNK     1      38.285   1.744   6.041  1.00  0.00    -0.361 OA
ATOM     24  H13 UNK     1      38.093   0.982   5.468  1.00  0.00     0.217 HD
ENDBRANCH   6  23
TORSDOF 8
ENDMDL
MODEL 3
REMARK VINA RESULT:      -5.8      2.727      3.847
REMARK  8 active torsions:
REMARK  status: ('A' for Active; 'I' for Inactive)
REMARK    1  A    between atoms: O2_2  and  C8_13 
REMARK    2  A    between atoms: O3_3  and  C9_14 
REMARK    3  A    between atoms: O4_4  and  C14_19 
REMARK    4  A    between atoms: O5_5  and  C15_20 
REMARK    5  A    between atoms: C1_6  and  C2_7 
REMARK    6  A    between atoms: C1_6  and  C3_8 
REMARK    7  A    between atoms: C2_7  and  C4_9 
REMARK    8  A    between atoms: C4_9  and  C5_10 
ROOT
ATOM      1  C5  UNK     1      39.805  -1.918   9.771  1.00  0.00     0.076 A 
ATOM      2  C8  UNK     1      38.523  -1.452   9.479  1.00  0.00     0.085 A 
ATOM      3  C9  UNK     1      40.620  -2.400   8.747  1.00  0.00     0.085 A 
ATOM      4  C10 UNK     1      38.056  -1.469   8.165  1.00  0.00     0.074 A 
ATOM      5  C11 UNK     1      40.155  -2.417   7.433  1.00  0.00     0.074 A 
ATOM      6  C14 UNK     1      38.872  -1.951   7.141  1.00  0.00     0.071 A 
ENDROOT
BRANCH   1   7
ATOM      7  C4  UNK     1      40.292  -1.899  11.145  1.00  0.00     0.165 C 
ATOM      8  O1  UNK     1      39.825  -2.682  11.995  1.00  0.00    -0.292 OA
BRANCH   7   9
ATOM      9  C2  UNK     1      41.390  -0.902  11.554  1.00  0.00     0.088 C 
BRANCH   9  10
ATOM     10  C1  UNK     1      41.106   0.530  11.098  1.00  0.00     0.046 C 
BRANCH  10  11
ATOM     11  C3  UNK     1      41.835   0.864   9.822  1.00  0.00    -0.058 A 
ATOM     12  C6  UNK     1      43.131   0.408   9.638  1.00  0.00     0.010 A 
ATOM     13  C12 UNK     1      43.806   0.716   8.456  1.00  0.00     0.037 A 
ATOM     14  C15 UNK     1      43.176   1.479   7.472  1.00  0.00     0.065 A 
ATOM     15  C13 UNK     1      41.871   1.932   7.670  1.00  0.00     0.037 A 
ATOM     16  C7  UNK     1      41.197   1.623   8.851  1.00  0.00     0.010 A 
BRANCH  14  17
ATOM     17  O5  UNK     1      43.833   1.779   6.320  1.00  0.00    -0.361 OA
ATOM     18  H14 UNK     1      44.739   1.429   6.373  1.00  0.00     0.217 HD
ENDBRANCH  14  17
ENDBRANCH  10  11
ENDBRANCH   9  10
ENDBRANCH   7   9
ENDBRANCH   1   7
BRANCH   2  19
ATOM     19  O2  UNK     1      37.709  -0.976  10.464  1.00  0.00    -0.360 OA
ATOM     20  H11 UNK     1      36.819  -0.802  10.118  1.00  0.00     0.217 HD
ENDBRANCH   2  19
BRANCH   3  21
ATOM     21  O3  UNK     1      41.877  -2.859   9.010  1.00  0.00    -0.360 OA
ATOM     22  H12 UNK     1      41.908  -3.816   8.839  1.00  0.00     0.217 HD
ENDBRANCH   3  21
BRANCH   6  23
ATOM     23  O4  UNK     1      38.417  -1.969   5.859  1.00  0.00    -0.361 OA
ATOM     24  H13 UNK     1      39.155  -1.760   5.260  1.00  0.00     0.217 HD
ENDBRANCH   6  23
TORSDOF 8
ENDMDL
MODEL 4
REMARK VINA RESULT:      -5.8      1.071      2.324
REMARK  8 active torsions:
REMARK  status: ('A' for Active; 'I' for Inactive)
REMARK    1  A    between atoms: O2_2  and  C8_13 
REMARK    2  A    between atoms: O3_3  and  C9_14 
REMARK    3  A    between atoms: O4_4  and  C14_19 
REMARK    4  A    between atoms: O5_5  and  C15_20 
REMARK    5  A    between atoms: C1_6  and  C2_7 
REMARK    6  A    between atoms: C1_6  and  C3_8 
REMARK    7  A    between atoms: C2_7  and  C4_9 
REMARK    8  A    between atoms: C4_9  and  C5_10 
ROOT
ATOM      1  C5  UNK     1      40.299   0.893   9.505  1.00  0.00     0.076 A 
ATOM      2  C8  UNK     1      40.374   2.186   8.986  1.00  0.00     0.085 A 
ATOM      3  C9  UNK     1      39.604  -0.097   8.811  1.00  0.00     0.085 A 
ATOM      4  C10 UNK     1      39.753   2.488   7.774  1.00  0.00     0.074 A 
ATOM      5  C11 UNK     1      38.983   0.205   7.599  1.00  0.00     0.074 A 
ATOM      6  C14 UNK     1      39.058   1.498   7.080  1.00  0.00     0.071 A 
ENDROOT
BRANCH   1   7
ATOM      7  C4  UNK     1      40.949   0.578  10.772  1.00  0.00     0.165 C 
ATOM      8  O1  UNK     1      40.276   0.422  11.809  1.00  0.00    -0.292 OA
BRANCH   7   9
ATOM      9  C2  UNK     1      42.480   0.440  10.832  1.00  0.00     0.088 C 
BRANCH   9  10
ATOM     10  C1  UNK     1      43.062  -0.349   9.658  1.00  0.00     0.046 C 
BRANCH  10  11
ATOM     11  C3  UNK     1      44.037   0.479   8.860  1.00  0.00    -0.058 A 
ATOM     12  C6  UNK     1      45.329   0.654   9.331  1.00  0.00     0.010 A 
ATOM     13  C12 UNK     1      46.231   1.420   8.592  1.00  0.00     0.037 A 
ATOM     14  C15 UNK     1      45.829   2.004   7.390  1.00  0.00     0.065 A 
ATOM     15  C13 UNK     1      44.525   1.821   6.927  1.00  0.00     0.037 A 
ATOM     16  C7  UNK     1      43.624   1.054   7.666  1.00  0.00     0.010 A 
BRANCH  14  17
ATOM     17  O5  UNK     1      46.709   2.750   6.669  1.00  0.00    -0.361 OA
ATOM     18  H14 UNK     1      46.267   3.565   6.377  1.00  0.00     0.217 HD
ENDBRANCH  14  17
ENDBRANCH  10  11
ENDBRANCH   9  10
ENDBRANCH   7   9
ENDBRANCH   1   7
BRANCH   2  19
ATOM     19  O2  UNK     1      41.049   3.169   9.646  1.00  0.00    -0.360 OA
ATOM     20  H11 UNK     1      40.748   3.232  10.567  1.00  0.00     0.217 HD
ENDBRANCH   2  19
BRANCH   3  21
ATOM     21  O3  UNK     1      39.519  -1.367   9.300  1.00  0.00    -0.360 OA
ATOM     22  H12 UNK     1      39.673  -1.349  10.261  1.00  0.00     0.217 HD
ENDBRANCH   3  21
BRANCH   6  23
ATOM     23  O4  UNK     1      38.451   1.792   5.898  1.00  0.00    -0.361 OA
ATOM     24  H13 UNK     1      38.428   2.759   5.788  1.00  0.00     0.217 HD
ENDBRANCH   6  23
TORSDOF 8
ENDMDL
MODEL 5
REMARK VINA RESULT:      -5.8      1.071      1.755
REMARK  8 active torsions:
REMARK  status: ('A' for Active; 'I' for Inactive)
REMARK    1  A    between atoms: O2_2  and  C8_13 
REMARK    2  A    between atoms: O3_3  and  C9_14 
REMARK    3  A    between atoms: O4_4  and  C14_19 
REMARK    4  A    between atoms: O5_5  and  C15_20 
REMARK    5  A    between atoms: C1_6  and  C2_7 
REMARK    6  A    between atoms: C1_6  and  C3_8 
REMARK    7  A    between atoms: C2_7  and  C4_9 
REMARK    8  A    between atoms: C4_9  and  C5_10 
ROOT
ATOM      1  C5  UNK     1      40.278   0.828   9.481  1.00  0.00     0.076 A 
ATOM      2  C8  UNK     1      39.591  -0.155   8.770  1.00  0.00     0.085 A 
ATOM      3  C9  UNK     1      40.343   2.130   8.984  1.00  0.00     0.085 A 
ATOM      4  C10 UNK     1      38.970   0.163   7.562  1.00  0.00     0.074 A 
ATOM      5  C11 UNK     1      39.722   2.449   7.777  1.00  0.00     0.074 A 
ATOM      6  C14 UNK     1      39.035   1.464   7.065  1.00  0.00     0.071 A 
ENDROOT
BRANCH   1   7
ATOM      7  C4  UNK     1      40.927   0.495  10.744  1.00  0.00     0.165 C 
ATOM      8  O1  UNK     1      40.251   0.291  11.771  1.00  0.00    -0.292 OA
BRANCH   7   9
ATOM      9  C2  UNK     1      42.460   0.396  10.813  1.00  0.00     0.088 C 
BRANCH   9  10
ATOM     10  C1  UNK     1      43.069  -0.387   9.648  1.00  0.00     0.046 C 
BRANCH  10  11
ATOM     11  C3  UNK     1      44.038   0.454   8.858  1.00  0.00    -0.058 A 
ATOM     12  C6  UNK     1      43.627   1.033   7.667  1.00  0.00     0.010 A 
ATOM     13  C12 UNK     1      44.524   1.811   6.936  1.00  0.00     0.037 A 
ATOM     14  C15 UNK     1      45.825   2.001   7.404  1.00  0.00     0.065 A 
ATOM     15  C13 UNK     1      46.227   1.412   8.604  1.00  0.00     0.037 A 
ATOM     16  C7  UNK     1      45.329   0.635   9.334  1.00  0.00     0.010 A 
BRANCH  14  17
ATOM     17  O5  UNK     1      46.700   2.761   6.692  1.00  0.00    -0.361 OA
ATOM     18  H14 UNK     1      47.496   2.913   7.229  1.00  0.00     0.217 HD
ENDBRANCH  14  17
ENDBRANCH  10  11
ENDBRANCH   9  10
ENDBRANCH   7   9
ENDBRANCH   1   7
BRANCH   2  19
ATOM     19  O2  UNK     1      39.514  -1.434   9.237  1.00  0.00    -0.360 OA
ATOM     20  H11 UNK     1      40.171  -1.583   9.935  1.00  0.00     0.217 HD
ENDBRANCH   2  19
BRANCH   3  21
ATOM     21  O3  UNK     1      41.009   3.107   9.664  1.00  0.00    -0.360 OA
ATOM     22  H12 UNK     1      41.842   2.742  10.010  1.00  0.00     0.217 HD
ENDBRANCH   3  21
BRANCH   6  23
ATOM     23  O4  UNK     1      38.430   1.775   5.887  1.00  0.00    -0.361 OA
ATOM     24  H13 UNK     1      38.396   2.743   5.795  1.00  0.00     0.217 HD
ENDBRANCH   6  23
TORSDOF 8
ENDMDL
MODEL 6
REMARK VINA RESULT:      -5.8      2.728      3.982
REMARK  8 active torsions:
REMARK  status: ('A' for Active; 'I' for Inactive)
REMARK    1  A    between atoms: O2_2  and  C8_13 
REMARK    2  A    between atoms: O3_3  and  C9_14 
REMARK    3  A    between atoms: O4_4  and  C14_19 
REMARK    4  A    between atoms: O5_5  and  C15_20 
REMARK    5  A    between atoms: C1_6  and  C2_7 
REMARK    6  A    between atoms: C1_6  and  C3_8 
REMARK    7  A    between atoms: C2_7  and  C4_9 
REMARK    8  A    between atoms: C4_9  and  C5_10 
ROOT
ATOM      1  C5  UNK     1      39.804  -1.917   9.776  1.00  0.00     0.076 A 
ATOM      2  C8  UNK     1      40.622  -2.397   8.753  1.00  0.00     0.085 A 
ATOM      3  C9  UNK     1      38.522  -1.453   9.482  1.00  0.00     0.085 A 
ATOM      4  C10 UNK     1      40.158  -2.412   7.438  1.00  0.00     0.074 A 
ATOM      5  C11 UNK     1      38.057  -1.468   8.168  1.00  0.00     0.074 A 
ATOM      6  C14 UNK     1      38.876  -1.948   7.144  1.00  0.00     0.071 A 
ENDROOT
BRANCH   1   7
ATOM      7  C4  UNK     1      40.289  -1.902  11.151  1.00  0.00     0.165 C 
ATOM      8  O1  UNK     1      39.816  -2.682  12.000  1.00  0.00    -0.292 OA
BRANCH   7   9
ATOM      9  C2  UNK     1      41.394  -0.914  11.561  1.00  0.00     0.088 C 
BRANCH   9  10
ATOM     10  C1  UNK     1      41.116   0.523  11.113  1.00  0.00     0.046 C 
BRANCH  10  11
ATOM     11  C3  UNK     1      41.839   0.857   9.834  1.00  0.00    -0.058 A 
ATOM     12  C6  UNK     1      41.196   1.611   8.865  1.00  0.00     0.010 A 
ATOM     13  C12 UNK     1      41.865   1.921   7.680  1.00  0.00     0.037 A 
ATOM     14  C15 UNK     1      43.170   1.471   7.479  1.00  0.00     0.065 A 
ATOM     15  C13 UNK     1      43.806   0.712   8.462  1.00  0.00     0.037 A 
ATOM     16  C7  UNK     1      43.137   0.404   9.646  1.00  0.00     0.010 A 
BRANCH  14  17
ATOM     17  O5  UNK     1      43.823   1.774   6.325  1.00  0.00    -0.361 OA
ATOM     18  H14 UNK     1      44.329   2.594   6.454  1.00  0.00     0.217 HD
ENDBRANCH  14  17
ENDBRANCH  10  11
ENDBRANCH   9  10
ENDBRANCH   7   9
ENDBRANCH   1   7
BRANCH   2  19
ATOM     19  O2  UNK     1      41.878  -2.856   9.017  1.00  0.00    -0.360 OA
ATOM     20  H11 UNK     1      41.990  -3.761   8.683  1.00  0.00     0.217 HD
ENDBRANCH   2  19
BRANCH   3  21
ATOM     21  O3  UNK     1      37.705  -0.980  10.467  1.00  0.00    -0.360 OA
ATOM     22  H12 UNK     1      38.200  -0.344  11.012  1.00  0.00     0.217 HD
ENDBRANCH   3  21
BRANCH   6  23
ATOM     23  O4  UNK     1      38.424  -1.962   5.861  1.00  0.00    -0.361 OA
ATOM     24  H13 UNK     1      38.449  -2.875   5.528  1.00  0.00     0.217 HD
ENDBRANCH   6  23
TORSDOF 8
ENDMDL
MODEL 7
REMARK VINA RESULT:      -5.7      1.681      2.033
REMARK  8 active torsions:
REMARK  status: ('A' for Active; 'I' for Inactive)
REMARK    1  A    between atoms: O2_2  and  C8_13 
REMARK    2  A    between atoms: O3_3  and  C9_14 
REMARK    3  A    between atoms: O4_4  and  C14_19 
REMARK    4  A    between atoms: O5_5  and  C15_20 
REMARK    5  A    between atoms: C1_6  and  C2_7 
REMARK    6  A    between atoms: C1_6  and  C3_8 
REMARK    7  A    between atoms: C2_7  and  C4_9 
REMARK    8  A    between atoms: C4_9  and  C5_10 
ROOT
ATOM      1  C5  UNK     1      40.499  -0.802   9.132  1.00  0.00     0.076 A 
ATOM      2  C8  UNK     1      40.766  -2.049   8.566  1.00  0.00     0.085 A 
ATOM      3  C9  UNK     1      39.484  -0.002   8.608  1.00  0.00     0.085 A 
ATOM      4  C10 UNK     1      40.018  -2.495   7.477  1.00  0.00     0.074 A 
ATOM      5  C11 UNK     1      38.736  -0.447   7.519  1.00  0.00     0.074 A 
ATOM      6  C14 UNK     1      39.003  -1.694   6.953  1.00  0.00     0.071 A 
ENDROOT
BRANCH   1   7
ATOM      7  C4  UNK     1      41.282  -0.337  10.272  1.00  0.00     0.165 C 
ATOM      8  O1  UNK     1      41.005  -0.713  11.428  1.00  0.00    -0.292 OA
BRANCH   7   9
ATOM      9  C2  UNK     1      42.458   0.629  10.049  1.00  0.00     0.088 C 
BRANCH   9  10
ATOM     10  C1  UNK     1      43.792  -0.086   9.823  1.00  0.00     0.046 C 
BRANCH  10  11
ATOM     11  C3  UNK     1      44.702   0.706   8.920  1.00  0.00    -0.058 A 
ATOM     12  C6  UNK     1      46.048   0.815   9.235  1.00  0.00     0.010 A 
ATOM     13  C12 UNK     1      46.891   1.548   8.398  1.00  0.00     0.037 A 
ATOM     14  C15 UNK     1      46.376   2.166   7.258  1.00  0.00     0.065 A 
ATOM     15  C13 UNK     1      45.020   2.049   6.953  1.00  0.00     0.037 A 
ATOM     16  C7  UNK     1      44.178   1.315   7.789  1.00  0.00     0.010 A 
BRANCH  14  17
ATOM     17  O5  UNK     1      47.198   2.880   6.442  1.00  0.00    -0.361 OA
ATOM     18  H14 UNK     1      46.877   2.805   5.527  1.00  0.00     0.217 HD
ENDBRANCH  14  17
ENDBRANCH  10  11
ENDBRANCH   9  10
ENDBRANCH   7   9
ENDBRANCH   1   7
BRANCH   2  19
ATOM     19  O2  UNK     1      41.753  -2.848   9.063  1.00  0.00    -0.360 OA
ATOM     20  H11 UNK     1      42.390  -2.326   9.576  1.00  0.00     0.217 HD
ENDBRANCH   2  19
BRANCH   3  21
ATOM     21  O3  UNK     1      39.207   1.220   9.147  1.00  0.00    -0.360 OA
ATOM     22  H12 UNK     1      39.186   1.143  10.117  1.00  0.00     0.217 HD
ENDBRANCH   3  21
BRANCH   6  23
ATOM     23  O4  UNK     1      38.274  -2.128   5.889  1.00  0.00    -0.361 OA
ATOM     24  H13 UNK     1      38.872  -2.549   5.248  1.00  0.00     0.217 HD
ENDBRANCH   6  23
TORSDOF 8
ENDMDL
MODEL 8
REMARK VINA RESULT:      -5.7      1.695      2.711
REMARK  8 active torsions:
REMARK  status: ('A' for Active; 'I' for Inactive)
REMARK    1  A    between atoms: O2_2  and  C8_13 
REMARK    2  A    between atoms: O3_3  and  C9_14 
REMARK    3  A    between atoms: O4_4  and  C14_19 
REMARK    4  A    between atoms: O5_5  and  C15_20 
REMARK    5  A    between atoms: C1_6  and  C2_7 
REMARK    6  A    between atoms: C1_6  and  C3_8 
REMARK    7  A    between atoms: C2_7  and  C4_9 
REMARK    8  A    between atoms: C4_9  and  C5_10 
ROOT
ATOM      1  C5  UNK     1      40.486  -0.809   9.152  1.00  0.00     0.076 A 
ATOM      2  C8  UNK     1      39.469  -0.013   8.625  1.00  0.00     0.085 A 
ATOM      3  C9  UNK     1      40.766  -2.051   8.583  1.00  0.00     0.085 A 
ATOM      4  C10 UNK     1      38.732  -0.459   7.528  1.00  0.00     0.074 A 
ATOM      5  C11 UNK     1      40.030  -2.497   7.486  1.00  0.00     0.074 A 
ATOM      6  C14 UNK     1      39.012  -1.701   6.958  1.00  0.00     0.071 A 
ENDROOT
BRANCH   1   7
ATOM      7  C4  UNK     1      41.257  -0.341  10.299  1.00  0.00     0.165 C 
ATOM      8  O1  UNK     1      40.965  -0.709  11.453  1.00  0.00    -0.292 OA
BRANCH   7   9
ATOM      9  C2  UNK     1      42.439   0.620  10.085  1.00  0.00     0.088 C 
BRANCH   9  10
ATOM     10  C1  UNK     1      43.766  -0.101   9.840  1.00  0.00     0.046 C 
BRANCH  10  11
ATOM     11  C3  UNK     1      44.672   0.693   8.934  1.00  0.00    -0.058 A 
ATOM     12  C6  UNK     1      44.149   1.284   7.794  1.00  0.00     0.010 A 
ATOM     13  C12 UNK     1      44.988   2.020   6.957  1.00  0.00     0.037 A 
ATOM     14  C15 UNK     1      46.342   2.154   7.269  1.00  0.00     0.065 A 
ATOM     15  C13 UNK     1      46.855   1.554   8.419  1.00  0.00     0.037 A 
ATOM     16  C7  UNK     1      46.016   0.820   9.256  1.00  0.00     0.010 A 
BRANCH  14  17
ATOM     17  O5  UNK     1      47.159   2.872   6.453  1.00  0.00    -0.361 OA
ATOM     18  H14 UNK     1      47.650   2.260   5.879  1.00  0.00     0.217 HD
ENDBRANCH  14  17
ENDBRANCH  10  11
ENDBRANCH   9  10
ENDBRANCH   7   9
ENDBRANCH   1   7
BRANCH   2  19
ATOM     19  O2  UNK     1      39.179   1.204   9.166  1.00  0.00    -0.360 OA
ATOM     20  H11 UNK     1      39.986   1.733   9.272  1.00  0.00     0.217 HD
ENDBRANCH   2  19
BRANCH   3  21
ATOM     21  O3  UNK     1      41.756  -2.844   9.082  1.00  0.00    -0.360 OA
ATOM     22  H12 UNK     1      41.928  -2.593  10.007  1.00  0.00     0.217 HD
ENDBRANCH   3  21
BRANCH   6  23
ATOM     23  O4  UNK     1      38.292  -2.138   5.889  1.00  0.00    -0.361 OA
ATOM     24  H13 UNK     1      38.050  -3.069   6.031  1.00  0.00     0.217 HD
ENDBRANCH   6  23
TORSDOF 8
ENDMDL
MODEL 9
REMARK VINA RESULT:      -5.6      1.497      6.070
REMARK  8 active torsions:
REMARK  status: ('A' for Active; 'I' for Inactive)
REMARK    1  A    between atoms: O2_2  and  C8_13 
REMARK    2  A    between atoms: O3_3  and  C9_14 
REMARK    3  A    between atoms: O4_4  and  C14_19 
REMARK    4  A    between atoms: O5_5  and  C15_20 
REMARK    5  A    between atoms: C1_6  and  C2_7 
REMARK    6  A    between atoms: C1_6  and  C3_8 
REMARK    7  A    between atoms: C2_7  and  C4_9 
REMARK    8  A    between atoms: C4_9  and  C5_10 
ROOT
ATOM      1  C5  UNK     1      44.289   0.703   9.000  1.00  0.00     0.076 A 
ATOM      2  C8  UNK     1      45.531   1.035   9.542  1.00  0.00     0.085 A 
ATOM      3  C9  UNK     1      43.990   1.045   7.681  1.00  0.00     0.085 A 
ATOM      4  C10 UNK     1      46.473   1.711   8.766  1.00  0.00     0.074 A 
ATOM      5  C11 UNK     1      44.931   1.720   6.905  1.00  0.00     0.074 A 
ATOM      6  C14 UNK     1      46.173   2.053   7.447  1.00  0.00     0.071 A 
ENDROOT
BRANCH   1   7
ATOM      7  C4  UNK     1      43.306  -0.004   9.813  1.00  0.00     0.165 C 
ATOM      8  O1  UNK     1      43.163  -1.237   9.708  1.00  0.00    -0.292 OA
BRANCH   7   9
ATOM      9  C2  UNK     1      42.432   0.779  10.808  1.00  0.00     0.088 C 
BRANCH   9  10
ATOM     10  C1  UNK     1      40.962   0.355  10.784  1.00  0.00     0.046 C 
BRANCH  10  11
ATOM     11  C3  UNK     1      40.289   0.748   9.494  1.00  0.00    -0.058 A 
ATOM     12  C6  UNK     1      40.245   2.085   9.128  1.00  0.00     0.010 A 
ATOM     13  C12 UNK     1      39.623   2.449   7.933  1.00  0.00     0.037 A 
ATOM     14  C15 UNK     1      39.050   1.470   7.119  1.00  0.00     0.065 A 
ATOM     15  C13 UNK     1      39.101   0.129   7.499  1.00  0.00     0.037 A 
ATOM     16  C7  UNK     1      39.724  -0.234   8.693  1.00  0.00     0.010 A 
BRANCH  14  17
ATOM     17  O5  UNK     1      38.445   1.825   5.953  1.00  0.00    -0.361 OA
ATOM     18  H14 UNK     1      39.124   2.110   5.319  1.00  0.00     0.217 HD
ENDBRANCH  14  17
ENDBRANCH  10  11
ENDBRANCH   9  10
ENDBRANCH   7   9
ENDBRANCH   1   7
BRANCH   2  19
ATOM     19  O2  UNK     1      45.844   0.710  10.828  1.00  0.00    -0.360 OA
ATOM     20  H11 UNK     1      45.049   0.447  11.319  1.00  0.00     0.217 HD
ENDBRANCH   2  19
BRANCH   3  21
ATOM     21  O3  UNK     1      42.783   0.728   7.132  1.00  0.00    -0.360 OA
ATOM     22  H12 UNK     1      42.135   0.594   7.845  1.00  0.00     0.217 HD
ENDBRANCH   3  21
BRANCH   6  23
ATOM     23  O4  UNK     1      47.092   2.712   6.690  1.00  0.00    -0.361 OA
ATOM     24  H13 UNK     1      47.961   2.649   7.122  1.00  0.00     0.217 HD
ENDBRANCH   6  23
TORSDOF 8
ENDMDL
MODEL 10
REMARK VINA RESULT:      -5.6      1.496      6.000
REMARK  8 active torsions:
REMARK  status: ('A' for Active; 'I' for Inactive)
REMARK    1  A    between atoms: O2_2  and  C8_13 
REMARK    2  A    between atoms: O3_3  and  C9_14 
REMARK    3  A    between atoms: O4_4  and  C14_19 
REMARK    4  A    between atoms: O5_5  and  C15_20 
REMARK    5  A    between atoms: C1_6  and  C2_7 
REMARK    6  A    between atoms: C1_6  and  C3_8 
REMARK    7  A    between atoms: C2_7  and  C4_9 
REMARK    8  A    between atoms: C4_9  and  C5_10 
ROOT
ATOM      1  C5  UNK     1      44.297   0.700   9.003  1.00  0.00     0.076 A 
ATOM      2  C8  UNK     1      44.001   1.042   7.684  1.00  0.00     0.085 A 
ATOM      3  C9  UNK     1      45.537   1.033   9.548  1.00  0.00     0.085 A 
ATOM      4  C10 UNK     1      44.945   1.717   6.910  1.00  0.00     0.074 A 
ATOM      5  C11 UNK     1      46.481   1.708   8.775  1.00  0.00     0.074 A 
ATOM      6  C14 UNK     1      46.185   2.050   7.454  1.00  0.00     0.071 A 
ENDROOT
BRANCH   1   7
ATOM      7  C4  UNK     1      43.310  -0.005   9.812  1.00  0.00     0.165 C 
ATOM      8  O1  UNK     1      43.166  -1.239   9.707  1.00  0.00    -0.292 OA
BRANCH   7   9
ATOM      9  C2  UNK     1      42.433   0.778  10.804  1.00  0.00     0.088 C 
BRANCH   9  10
ATOM     10  C1  UNK     1      40.964   0.352  10.779  1.00  0.00     0.046 C 
BRANCH  10  11
ATOM     11  C3  UNK     1      40.291   0.747   9.489  1.00  0.00    -0.058 A 
ATOM     12  C6  UNK     1      39.715  -0.232   8.694  1.00  0.00     0.010 A 
ATOM     13  C12 UNK     1      39.092   0.134   7.500  1.00  0.00     0.037 A 
ATOM     14  C15 UNK     1      39.054   1.475   7.115  1.00  0.00     0.065 A 
ATOM     15  C13 UNK     1      39.638   2.449   7.925  1.00  0.00     0.037 A 
ATOM     16  C7  UNK     1      40.260   2.083   9.118  1.00  0.00     0.010 A 
BRANCH  14  17
ATOM     17  O5  UNK     1      38.446   1.831   5.952  1.00  0.00    -0.361 OA
ATOM     18  H14 UNK     1      37.568   1.415   5.914  1.00  0.00     0.217 HD
ENDBRANCH  14  17
ENDBRANCH  10  11
ENDBRANCH   9  10
ENDBRANCH   7   9
ENDBRANCH   1   7
BRANCH   2  19
ATOM     19  O2  UNK     1      42.796   0.727   7.131  1.00  0.00    -0.360 OA
ATOM     20  H11 UNK     1      42.185   1.479   7.188  1.00  0.00     0.217 HD
ENDBRANCH   2  19
BRANCH   3  21
ATOM     21  O3  UNK     1      45.847   0.709  10.836  1.00  0.00    -0.360 OA
ATOM     22  H12 UNK     1      46.001   1.526  11.341  1.00  0.00     0.217 HD
ENDBRANCH   3  21
BRANCH   6  23
ATOM     23  O4  UNK     1      47.106   2.708   6.699  1.00  0.00    -0.361 OA
ATOM     24  H13 UNK     1      46.645   3.333   6.113  1.00  0.00     0.217 HD
ENDBRANCH   6  23
TORSDOF 8
ENDMDL
MODEL 11
REMARK VINA RESULT:      -5.6      4.380      6.228
REMARK  8 active torsions:
REMARK  status: ('A' for Active; 'I' for Inactive)
REMARK    1  A    between atoms: O2_2  and  C8_13 
REMARK    2  A    between atoms: O3_3  and  C9_14 
REMARK    3  A    between atoms: O4_4  and  C14_19 
REMARK    4  A    between atoms: O5_5  and  C15_20 
REMARK    5  A    between atoms: C1_6  and  C2_7 
REMARK    6  A    between atoms: C1_6  and  C3_8 
REMARK    7  A    between atoms: C2_7  and  C4_9 
REMARK    8  A    between atoms: C4_9  and  C5_10 
ROOT
ATOM      1  C5  UNK     1      39.915  -2.209   8.949  1.00  0.00     0.076 A 
ATOM      2  C8  UNK     1      39.160  -2.951   9.858  1.00  0.00     0.085 A 
ATOM      3  C9  UNK     1      41.105  -1.609   9.358  1.00  0.00     0.085 A 
ATOM      4  C10 UNK     1      39.595  -3.092  11.175  1.00  0.00     0.074 A 
ATOM      5  C11 UNK     1      41.541  -1.749  10.675  1.00  0.00     0.074 A 
ATOM      6  C14 UNK     1      40.786  -2.491  11.585  1.00  0.00     0.071 A 
ENDROOT
BRANCH   1   7
ATOM      7  C4  UNK     1      39.459  -2.063   7.571  1.00  0.00     0.165 C 
ATOM      8  O1  UNK     1      39.597  -2.994   6.755  1.00  0.00    -0.292 OA
BRANCH   7   9
ATOM      9  C2  UNK     1      38.804  -0.748   7.118  1.00  0.00     0.088 C 
BRANCH   9  10
ATOM     10  C1  UNK     1      37.989  -0.067   8.220  1.00  0.00     0.046 C 
BRANCH  10  11
ATOM     11  C3  UNK     1      38.673   1.174   8.733  1.00  0.00    -0.058 A 
ATOM     12  C6  UNK     1      38.364   1.649   9.999  1.00  0.00     0.010 A 
ATOM     13  C12 UNK     1      38.998   2.798  10.474  1.00  0.00     0.037 A 
ATOM     14  C15 UNK     1      39.933   3.459   9.676  1.00  0.00     0.065 A 
ATOM     15  C13 UNK     1      40.235   2.970   8.404  1.00  0.00     0.037 A 
ATOM     16  C7  UNK     1      39.601   1.821   7.931  1.00  0.00     0.010 A 
BRANCH  14  17
ATOM     17  O5  UNK     1      40.552   4.578  10.140  1.00  0.00    -0.361 OA
ATOM     18  H14 UNK     1      40.553   5.251   9.439  1.00  0.00     0.217 HD
ENDBRANCH  14  17
ENDBRANCH  10  11
ENDBRANCH   9  10
ENDBRANCH   7   9
ENDBRANCH   1   7
BRANCH   2  19
ATOM     19  O2  UNK     1      37.994  -3.547   9.479  1.00  0.00    -0.360 OA
ATOM     20  H11 UNK     1      38.149  -4.469   9.219  1.00  0.00     0.217 HD
ENDBRANCH   2  19
BRANCH   3  21
ATOM     21  O3  UNK     1      41.858  -0.880   8.486  1.00  0.00    -0.360 OA
ATOM     22  H12 UNK     1      42.796  -1.108   8.608  1.00  0.00     0.217 HD
ENDBRANCH   3  21
BRANCH   6  23
ATOM     23  O4  UNK     1      41.211  -2.627  12.870  1.00  0.00    -0.361 OA
ATOM     24  H13 UNK     1      40.984  -3.520  13.184  1.00  0.00     0.217 HD
ENDBRANCH   6  23
TORSDOF 8
ENDMDL
MODEL 12
REMARK VINA RESULT:      -5.6      4.378      6.455
REMARK  8 active torsions:
REMARK  status: ('A' for Active; 'I' for Inactive)
REMARK    1  A    between atoms: O2_2  and  C8_13 
REMARK    2  A    between atoms: O3_3  and  C9_14 
REMARK    3  A    between atoms: O4_4  and  C14_19 
REMARK    4  A    between atoms: O5_5  and  C15_20 
REMARK    5  A    between atoms: C1_6  and  C2_7 
REMARK    6  A    between atoms: C1_6  and  C3_8 
REMARK    7  A    between atoms: C2_7  and  C4_9 
REMARK    8  A    between atoms: C4_9  and  C5_10 
ROOT
ATOM      1  C5  UNK     1      39.926  -2.199   8.947  1.00  0.00     0.076 A 
ATOM      2  C8  UNK     1      41.106  -1.588   9.371  1.00  0.00     0.085 A 
ATOM      3  C9  UNK     1      39.171  -2.953   9.845  1.00  0.00     0.085 A 
ATOM      4  C10 UNK     1      41.531  -1.731  10.691  1.00  0.00     0.074 A 
ATOM      5  C11 UNK     1      39.595  -3.097  11.166  1.00  0.00     0.074 A 
ATOM      6  C14 UNK     1      40.776  -2.485  11.589  1.00  0.00     0.071 A 
ENDROOT
BRANCH   1   7
ATOM      7  C4  UNK     1      39.482  -2.048   7.566  1.00  0.00     0.165 C 
ATOM      8  O1  UNK     1      39.655  -2.965   6.740  1.00  0.00    -0.292 OA
BRANCH   7   9
ATOM      9  C2  UNK     1      38.796  -0.745   7.121  1.00  0.00     0.088 C 
BRANCH   9  10
ATOM     10  C1  UNK     1      37.996  -0.072   8.239  1.00  0.00     0.046 C 
BRANCH  10  11
ATOM     11  C3  UNK     1      38.684   1.171   8.744  1.00  0.00    -0.058 A 
ATOM     12  C6  UNK     1      39.591   1.828   7.928  1.00  0.00     0.010 A 
ATOM     13  C12 UNK     1      40.227   2.979   8.396  1.00  0.00     0.037 A 
ATOM     14  C15 UNK     1      39.948   3.457   9.677  1.00  0.00     0.065 A 
ATOM     15  C13 UNK     1      39.033   2.786  10.488  1.00  0.00     0.037 A 
ATOM     16  C7  UNK     1      38.397   1.637  10.020  1.00  0.00     0.010 A 
BRANCH  14  17
ATOM     17  O5  UNK     1      40.567   4.580  10.133  1.00  0.00    -0.361 OA
ATOM     18  H14 UNK     1      40.786   4.460  11.072  1.00  0.00     0.217 HD
ENDBRANCH  14  17
ENDBRANCH  10  11
ENDBRANCH   9  10
ENDBRANCH   7   9
ENDBRANCH   1   7
BRANCH   2  19
ATOM     19  O2  UNK     1      41.859  -0.846   8.510  1.00  0.00    -0.360 OA
ATOM     20  H11 UNK     1      41.978   0.056   8.849  1.00  0.00     0.217 HD
ENDBRANCH   2  19
BRANCH   3  21
ATOM     21  O3  UNK     1      38.014  -3.559   9.452  1.00  0.00    -0.360 OA
ATOM     22  H12 UNK     1      37.749  -4.207  10.127  1.00  0.00     0.217 HD
ENDBRANCH   3  21
BRANCH   6  23
ATOM     23  O4  UNK     1      41.191  -2.626  12.877  1.00  0.00    -0.361 OA
ATOM     24  H13 UNK     1      40.413  -2.764  13.445  1.00  0.00     0.217 HD
ENDBRANCH   6  23
TORSDOF 8
ENDMDL
MODEL 13
REMARK VINA RESULT:      -5.6      1.341      2.331
REMARK  8 active torsions:
REMARK  status: ('A' for Active; 'I' for Inactive)
REMARK    1  A    between atoms: O2_2  and  C8_13 
REMARK    2  A    between atoms: O3_3  and  C9_14 
REMARK    3  A    between atoms: O4_4  and  C14_19 
REMARK    4  A    between atoms: O5_5  and  C15_20 
REMARK    5  A    between atoms: C1_6  and  C2_7 
REMARK    6  A    between atoms: C1_6  and  C3_8 
REMARK    7  A    between atoms: C2_7  and  C4_9 
REMARK    8  A    between atoms: C4_9  and  C5_10 
ROOT
ATOM      1  C5  UNK     1      41.037  -0.516   8.668  1.00  0.00     0.076 A 
ATOM      2  C8  UNK     1      40.084   0.368   8.162  1.00  0.00     0.085 A 
ATOM      3  C9  UNK     1      40.873  -1.891   8.498  1.00  0.00     0.085 A 
ATOM      4  C10 UNK     1      38.967  -0.123   7.487  1.00  0.00     0.074 A 
ATOM      5  C11 UNK     1      39.756  -2.382   7.823  1.00  0.00     0.074 A 
ATOM      6  C14 UNK     1      38.802  -1.497   7.317  1.00  0.00     0.071 A 
ENDROOT
BRANCH   1   7
ATOM      7  C4  UNK     1      42.206  -0.002   9.374  1.00  0.00     0.165 C 
ATOM      8  O1  UNK     1      42.271  -0.055  10.617  1.00  0.00    -0.292 OA
BRANCH   7   9
ATOM      9  C2  UNK     1      43.369   0.615   8.579  1.00  0.00     0.088 C 
BRANCH   9  10
ATOM     10  C1  UNK     1      44.703   0.570   9.327  1.00  0.00     0.046 C 
BRANCH  10  11
ATOM     11  C3  UNK     1      45.818   1.177   8.515  1.00  0.00    -0.058 A 
ATOM     12  C6  UNK     1      47.134   0.910   8.858  1.00  0.00     0.010 A 
ATOM     13  C12 UNK     1      48.167   1.472   8.106  1.00  0.00     0.037 A 
ATOM     14  C15 UNK     1      47.869   2.296   7.020  1.00  0.00     0.065 A 
ATOM     15  C13 UNK     1      46.540   2.557   6.686  1.00  0.00     0.037 A 
ATOM     16  C7  UNK     1      45.509   1.995   7.438  1.00  0.00     0.010 A 
BRANCH  14  17
ATOM     17  O5  UNK     1      48.875   2.843   6.286  1.00  0.00    -0.361 OA
ATOM     18  H14 UNK     1      49.702   2.790   6.795  1.00  0.00     0.217 HD
ENDBRANCH  14  17
ENDBRANCH  10  11
ENDBRANCH   9  10
ENDBRANCH   7   9
ENDBRANCH   1   7
BRANCH   2  19
ATOM     19  O2  UNK     1      40.225   1.715   8.316  1.00  0.00    -0.360 OA
ATOM     20  H11 UNK     1      40.970   1.916   8.906  1.00  0.00     0.217 HD
ENDBRANCH   2  19
BRANCH   3  21
ATOM     21  O3  UNK     1      41.793  -2.772   8.985  1.00  0.00    -0.360 OA
ATOM     22  H12 UNK     1      42.144  -3.303   8.249  1.00  0.00     0.217 HD
ENDBRANCH   3  21
BRANCH   6  23
ATOM     23  O4  UNK     1      37.712  -1.977   6.659  1.00  0.00    -0.361 OA
ATOM     24  H13 UNK     1      37.896  -1.978   5.703  1.00  0.00     0.217 HD
ENDBRANCH   6  23
TORSDOF 8
ENDMDL
MODEL 14
REMARK VINA RESULT:      -5.6      5.454      8.912
REMARK  8 active torsions:
REMARK  status: ('A' for Active; 'I' for Inactive)
REMARK    1  A    between atoms: O2_2  and  C8_13 
REMARK    2  A    between atoms: O3_3  and  C9_14 
REMARK    3  A    between atoms: O4_4  and  C14_19 
REMARK    4  A    between atoms: O5_5  and  C15_20 
REMARK    5  A    between atoms: C1_6  and  C2_7 
REMARK    6  A    between atoms: C1_6  and  C3_8 
REMARK    7  A    between atoms: C2_7  and  C4_9 
REMARK    8  A    between atoms: C4_9  and  C5_10 
ROOT
ATOM      1  C5  UNK     1      37.860  -2.018   8.148  1.00  0.00     0.076 A 
ATOM      2  C8  UNK     1      38.794  -2.140   7.119  1.00  0.00     0.085 A 
ATOM      3  C9  UNK     1      38.268  -2.133   9.477  1.00  0.00     0.085 A 
ATOM      4  C10 UNK     1      40.135  -2.377   7.419  1.00  0.00     0.074 A 
ATOM      5  C11 UNK     1      39.609  -2.370   9.777  1.00  0.00     0.074 A 
ATOM      6  C14 UNK     1      40.544  -2.492   8.748  1.00  0.00     0.071 A 
ENDROOT
BRANCH   1   7
ATOM      7  C4  UNK     1      36.458  -1.770   7.834  1.00  0.00     0.165 C 
ATOM      8  O1  UNK     1      36.059  -0.617   7.580  1.00  0.00    -0.292 OA
BRANCH   7   9
ATOM      9  C2  UNK     1      35.459  -2.939   7.818  1.00  0.00     0.088 C 
BRANCH   9  10
ATOM     10  C1  UNK     1      35.315  -3.591   6.441  1.00  0.00     0.046 C 
BRANCH  10  11
ATOM     11  C3  UNK     1      36.266  -4.748   6.270  1.00  0.00    -0.058 A 
ATOM     12  C6  UNK     1      36.746  -5.055   5.006  1.00  0.00     0.010 A 
ATOM     13  C12 UNK     1      37.627  -6.125   4.848  1.00  0.00     0.037 A 
ATOM     14  C15 UNK     1      38.016  -6.877   5.957  1.00  0.00     0.065 A 
ATOM     15  C13 UNK     1      37.526  -6.558   7.224  1.00  0.00     0.037 A 
ATOM     16  C7  UNK     1      36.646  -5.487   7.381  1.00  0.00     0.010 A 
BRANCH  14  17
ATOM     17  O5  UNK     1      38.876  -7.920   5.803  1.00  0.00    -0.361 OA
ATOM     18  H14 UNK     1      38.364  -8.729   5.633  1.00  0.00     0.217 HD
ENDBRANCH  14  17
ENDBRANCH  10  11
ENDBRANCH   9  10
ENDBRANCH   7   9
ENDBRANCH   1   7
BRANCH   2  19
ATOM     19  O2  UNK     1      38.417  -2.030   5.814  1.00  0.00    -0.360 OA
ATOM     20  H11 UNK     1      39.093  -2.409   5.229  1.00  0.00     0.217 HD
ENDBRANCH   2  19
BRANCH   3  21
ATOM     21  O3  UNK     1      37.372  -2.017  10.498  1.00  0.00    -0.360 OA
ATOM     22  H12 UNK     1      37.442  -1.126  10.883  1.00  0.00     0.217 HD
ENDBRANCH   3  21
BRANCH   6  23
ATOM     23  O4  UNK     1      41.852  -2.724   9.041  1.00  0.00    -0.361 OA
ATOM     24  H13 UNK     1      42.293  -3.080   8.250  1.00  0.00     0.217 HD
ENDBRANCH   6  23
TORSDOF 8
ENDMDL
MODEL 15
REMARK VINA RESULT:      -5.6      5.470      8.866
REMARK  8 active torsions:
REMARK  status: ('A' for Active; 'I' for Inactive)
REMARK    1  A    between atoms: O2_2  and  C8_13 
REMARK    2  A    between atoms: O3_3  and  C9_14 
REMARK    3  A    between atoms: O4_4  and  C14_19 
REMARK    4  A    between atoms: O5_5  and  C15_20 
REMARK    5  A    between atoms: C1_6  and  C2_7 
REMARK    6  A    between atoms: C1_6  and  C3_8 
REMARK    7  A    between atoms: C2_7  and  C4_9 
REMARK    8  A    between atoms: C4_9  and  C5_10 
ROOT
ATOM      1  C5  UNK     1      37.841  -2.041   8.151  1.00  0.00     0.076 A 
ATOM      2  C8  UNK     1      38.254  -2.163   9.477  1.00  0.00     0.085 A 
ATOM      3  C9  UNK     1      38.772  -2.153   7.118  1.00  0.00     0.085 A 
ATOM      4  C10 UNK     1      39.598  -2.395   9.771  1.00  0.00     0.074 A 
ATOM      5  C11 UNK     1      40.115  -2.385   7.411  1.00  0.00     0.074 A 
ATOM      6  C14 UNK     1      40.529  -2.506   8.738  1.00  0.00     0.071 A 
ENDROOT
BRANCH   1   7
ATOM      7  C4  UNK     1      36.436  -1.799   7.844  1.00  0.00     0.165 C 
ATOM      8  O1  UNK     1      36.032  -0.649   7.583  1.00  0.00    -0.292 OA
BRANCH   7   9
ATOM      9  C2  UNK     1      35.440  -2.971   7.846  1.00  0.00     0.088 C 
BRANCH   9  10
ATOM     10  C1  UNK     1      35.280  -3.629   6.474  1.00  0.00     0.046 C 
BRANCH  10  11
ATOM     11  C3  UNK     1      36.244  -4.773   6.290  1.00  0.00    -0.058 A 
ATOM     12  C6  UNK     1      36.630  -5.524   7.389  1.00  0.00     0.010 A 
ATOM     13  C12 UNK     1      37.522  -6.583   7.219  1.00  0.00     0.037 A 
ATOM     14  C15 UNK     1      38.020  -6.877   5.949  1.00  0.00     0.065 A 
ATOM     15  C13 UNK     1      37.625  -6.113   4.850  1.00  0.00     0.037 A 
ATOM     16  C7  UNK     1      36.732  -5.055   5.022  1.00  0.00     0.010 A 
BRANCH  14  17
ATOM     17  O5  UNK     1      38.890  -7.910   5.782  1.00  0.00    -0.361 OA
ATOM     18  H14 UNK     1      38.396  -8.692   5.481  1.00  0.00     0.217 HD
ENDBRANCH  14  17
ENDBRANCH  10  11
ENDBRANCH   9  10
ENDBRANCH   7   9
ENDBRANCH   1   7
BRANCH   2  19
ATOM     19  O2  UNK     1      37.362  -2.057  10.502  1.00  0.00    -0.360 OA
ATOM     20  H11 UNK     1      36.716  -1.356  10.323  1.00  0.00     0.217 HD
ENDBRANCH   2  19
BRANCH   3  21
ATOM     21  O3  UNK     1      38.389  -2.038   5.814  1.00  0.00    -0.360 OA
ATOM     22  H12 UNK     1      37.559  -2.528   5.682  1.00  0.00     0.217 HD
ENDBRANCH   3  21
BRANCH   6  23
ATOM     23  O4  UNK     1      41.840  -2.732   9.024  1.00  0.00    -0.361 OA
ATOM     24  H13 UNK     1      42.359  -1.955   8.755  1.00  0.00     0.217 HD
ENDBRANCH   6  23
TORSDOF 8
ENDMDL
MODEL 16
REMARK VINA RESULT:      -5.5      1.375      6.512
REMARK  8 active torsions:
REMARK  status: ('A' for Active; 'I' for Inactive)
REMARK    1  A    between atoms: O2_2  and  C8_13 
REMARK    2  A    between atoms: O3_3  and  C9_14 
REMARK    3  A    between atoms: O4_4  and  C14_19 
REMARK    4  A    between atoms: O5_5  and  C15_20 
REMARK    5  A    between atoms: C1_6  and  C2_7 
REMARK    6  A    between atoms: C1_6  and  C3_8 
REMARK    7  A    between atoms: C2_7  and  C4_9 
REMARK    8  A    between atoms: C4_9  and  C5_10 
ROOT
ATOM      1  C5  UNK     1      45.471   1.433   8.744  1.00  0.00     0.076 A 
ATOM      2  C8  UNK     1      45.228   2.225   7.622  1.00  0.00     0.085 A 
ATOM      3  C9  UNK     1      46.762   0.975   9.008  1.00  0.00     0.085 A 
ATOM      4  C10 UNK     1      46.275   2.558   6.763  1.00  0.00     0.074 A 
ATOM      5  C11 UNK     1      47.810   1.308   8.150  1.00  0.00     0.074 A 
ATOM      6  C14 UNK     1      47.566   2.100   7.026  1.00  0.00     0.071 A 
ENDROOT
BRANCH   1   7
ATOM      7  C4  UNK     1      44.375   1.086   9.642  1.00  0.00     0.165 C 
ATOM      8  O1  UNK     1      44.213   1.701  10.714  1.00  0.00    -0.292 OA
BRANCH   7   9
ATOM      9  C2  UNK     1      43.410  -0.051   9.267  1.00  0.00     0.088 C 
BRANCH   9  10
ATOM     10  C1  UNK     1      42.020   0.107   9.886  1.00  0.00     0.046 C 
BRANCH  10  11
ATOM     11  C3  UNK     1      41.000   0.533   8.862  1.00  0.00    -0.058 A 
ATOM     12  C6  UNK     1      40.928   1.865   8.484  1.00  0.00     0.010 A 
ATOM     13  C12 UNK     1      39.984   2.260   7.536  1.00  0.00     0.037 A 
ATOM     14  C15 UNK     1      39.120   1.316   6.978  1.00  0.00     0.065 A 
ATOM     15  C13 UNK     1      39.202  -0.021   7.368  1.00  0.00     0.037 A 
ATOM     16  C7  UNK     1      40.147  -0.415   8.315  1.00  0.00     0.010 A 
BRANCH  14  17
ATOM     17  O5  UNK     1      38.200   1.701   6.053  1.00  0.00    -0.361 OA
ATOM     18  H14 UNK     1      37.891   2.597   6.268  1.00  0.00     0.217 HD
ENDBRANCH  14  17
ENDBRANCH  10  11
ENDBRANCH   9  10
ENDBRANCH   7   9
ENDBRANCH   1   7
BRANCH   2  19
ATOM     19  O2  UNK     1      43.975   2.684   7.345  1.00  0.00    -0.360 OA
ATOM     20  H11 UNK     1      43.673   2.357   6.483  1.00  0.00     0.217 HD
ENDBRANCH   2  19
BRANCH   3  21
ATOM     21  O3  UNK     1      47.021   0.201  10.100  1.00  0.00    -0.360 OA
ATOM     22  H12 UNK     1      47.408   0.757  10.799  1.00  0.00     0.217 HD
ENDBRANCH   3  21
BRANCH   6  23
ATOM     23  O4  UNK     1      48.588   2.424   6.189  1.00  0.00    -0.361 OA
ATOM     24  H13 UNK     1      48.224   2.619   5.308  1.00  0.00     0.217 HD
ENDBRANCH   6  23
TORSDOF 8
ENDMDL
MODEL 17
REMARK VINA RESULT:      -5.4      1.589      2.169
REMARK  8 active torsions:
REMARK  status: ('A' for Active; 'I' for Inactive)
REMARK    1  A    between atoms: O2_2  and  C8_13 
REMARK    2  A    between atoms: O3_3  and  C9_14 
REMARK    3  A    between atoms: O4_4  and  C14_19 
REMARK    4  A    between atoms: O5_5  and  C15_20 
REMARK    5  A    between atoms: C1_6  and  C2_7 
REMARK    6  A    between atoms: C1_6  and  C3_8 
REMARK    7  A    between atoms: C2_7  and  C4_9 
REMARK    8  A    between atoms: C4_9  and  C5_10 
ROOT
ATOM      1  C5  UNK     1      40.994   0.944   8.446  1.00  0.00     0.076 A 
ATOM      2  C8  UNK     1      41.160  -0.441   8.464  1.00  0.00     0.085 A 
ATOM      3  C9  UNK     1      39.848   1.500   7.879  1.00  0.00     0.085 A 
ATOM      4  C10 UNK     1      40.181  -1.269   7.916  1.00  0.00     0.074 A 
ATOM      5  C11 UNK     1      38.868   0.674   7.331  1.00  0.00     0.074 A 
ATOM      6  C14 UNK     1      39.034  -0.712   7.349  1.00  0.00     0.071 A 
ENDROOT
BRANCH   1   7
ATOM      7  C4  UNK     1      42.019   1.808   9.019  1.00  0.00     0.165 C 
ATOM      8  O1  UNK     1      42.126   1.932  10.255  1.00  0.00    -0.292 OA
BRANCH   7   9
ATOM      9  C2  UNK     1      42.977   2.577   8.094  1.00  0.00     0.088 C 
BRANCH   9  10
ATOM     10  C1  UNK     1      43.841   1.662   7.223  1.00  0.00     0.046 C 
BRANCH  10  11
ATOM     11  C3  UNK     1      45.213   1.465   7.814  1.00  0.00    -0.058 A 
ATOM     12  C6  UNK     1      45.347   0.790   9.017  1.00  0.00     0.010 A 
ATOM     13  C12 UNK     1      46.617   0.606   9.564  1.00  0.00     0.037 A 
ATOM     14  C15 UNK     1      47.740   1.103   8.900  1.00  0.00     0.065 A 
ATOM     15  C13 UNK     1      47.592   1.781   7.690  1.00  0.00     0.037 A 
ATOM     16  C7  UNK     1      46.321   1.963   7.144  1.00  0.00     0.010 A 
BRANCH  14  17
ATOM     17  O5  UNK     1      48.979   0.923   9.432  1.00  0.00    -0.361 OA
ATOM     18  H14 UNK     1      48.958   1.169  10.373  1.00  0.00     0.217 HD
ENDBRANCH  14  17
ENDBRANCH  10  11
ENDBRANCH   9  10
ENDBRANCH   7   9
ENDBRANCH   1   7
BRANCH   2  19
ATOM     19  O2  UNK     1      42.272  -1.007   9.013  1.00  0.00    -0.360 OA
ATOM     20  H11 UNK     1      42.850  -1.369   8.322  1.00  0.00     0.217 HD
ENDBRANCH   2  19
BRANCH   3  21
ATOM     21  O3  UNK     1      39.665   2.851   7.851  1.00  0.00    -0.360 OA
ATOM     22  H12 UNK     1      40.527   3.291   7.955  1.00  0.00     0.217 HD
ENDBRANCH   3  21
BRANCH   6  23
ATOM     23  O4  UNK     1      38.078  -1.519   6.814  1.00  0.00    -0.361 OA
ATOM     24  H13 UNK     1      38.511  -2.220   6.297  1.00  0.00     0.217 HD
ENDBRANCH   6  23
TORSDOF 8
ENDMDL
MODEL 18
REMARK VINA RESULT:      -5.4      3.186      4.848
REMARK  8 active torsions:
REMARK  status: ('A' for Active; 'I' for Inactive)
REMARK    1  A    between atoms: O2_2  and  C8_13 
REMARK    2  A    between atoms: O3_3  and  C9_14 
REMARK    3  A    between atoms: O4_4  and  C14_19 
REMARK    4  A    between atoms: O5_5  and  C15_20 
REMARK    5  A    between atoms: C1_6  and  C2_7 
REMARK    6  A    between atoms: C1_6  and  C3_8 
REMARK    7  A    between atoms: C2_7  and  C4_9 
REMARK    8  A    between atoms: C4_9  and  C5_10 
ROOT
ATOM      1  C5  UNK     1      38.733  -1.119   8.344  1.00  0.00     0.076 A 
ATOM      2  C8  UNK     1      39.917  -1.659   7.842  1.00  0.00     0.085 A 
ATOM      3  C9  UNK     1      37.503  -1.614   7.911  1.00  0.00     0.085 A 
ATOM      4  C10 UNK     1      39.871  -2.693   6.907  1.00  0.00     0.074 A 
ATOM      5  C11 UNK     1      37.456  -2.648   6.977  1.00  0.00     0.074 A 
ATOM      6  C14 UNK     1      38.641  -3.188   6.474  1.00  0.00     0.071 A 
ENDROOT
BRANCH   1   7
ATOM      7  C4  UNK     1      38.782  -0.038   9.322  1.00  0.00     0.165 C 
ATOM      8  O1  UNK     1      39.149  -0.257  10.493  1.00  0.00    -0.292 OA
BRANCH   7   9
ATOM      9  C2  UNK     1      38.377   1.387   8.908  1.00  0.00     0.088 C 
BRANCH   9  10
ATOM     10  C1  UNK     1      39.224   1.948   7.763  1.00  0.00     0.046 C 
BRANCH  10  11
ATOM     11  C3  UNK     1      40.536   2.497   8.260  1.00  0.00    -0.058 A 
ATOM     12  C6  UNK     1      41.714   2.119   7.634  1.00  0.00     0.010 A 
ATOM     13  C12 UNK     1      42.929   2.628   8.093  1.00  0.00     0.037 A 
ATOM     14  C15 UNK     1      42.952   3.509   9.175  1.00  0.00     0.065 A 
ATOM     15  C13 UNK     1      41.760   3.881   9.796  1.00  0.00     0.037 A 
ATOM     16  C7  UNK     1      40.545   3.373   9.336  1.00  0.00     0.010 A 
BRANCH  14  17
ATOM     17  O5  UNK     1      44.137   4.006   9.621  1.00  0.00    -0.361 OA
ATOM     18  H14 UNK     1      44.266   4.896   9.251  1.00  0.00     0.217 HD
ENDBRANCH  14  17
ENDBRANCH  10  11
ENDBRANCH   9  10
ENDBRANCH   7   9
ENDBRANCH   1   7
BRANCH   2  19
ATOM     19  O2  UNK     1      41.130  -1.191   8.251  1.00  0.00    -0.360 OA
ATOM     20  H11 UNK     1      41.283  -0.294   7.914  1.00  0.00     0.217 HD
ENDBRANCH   2  19
BRANCH   3  21
ATOM     21  O3  UNK     1      36.334  -1.101   8.390  1.00  0.00    -0.360 OA
ATOM     22  H12 UNK     1      36.137  -1.508   9.251  1.00  0.00     0.217 HD
ENDBRANCH   3  21
BRANCH   6  23
ATOM     23  O4  UNK     1      38.595  -4.196   5.562  1.00  0.00    -0.361 OA
ATOM     24  H13 UNK     1      39.500  -4.515   5.399  1.00  0.00     0.217 HD
ENDBRANCH   6  23
TORSDOF 8
ENDMDL
MODEL 19
REMARK VINA RESULT:      -5.4      2.222      4.137
REMARK  8 active torsions:
REMARK  status: ('A' for Active; 'I' for Inactive)
REMARK    1  A    between atoms: O2_2  and  C8_13 
REMARK    2  A    between atoms: O3_3  and  C9_14 
REMARK    3  A    between atoms: O4_4  and  C14_19 
REMARK    4  A    between atoms: O5_5  and  C15_20 
REMARK    5  A    between atoms: C1_6  and  C2_7 
REMARK    6  A    between atoms: C1_6  and  C3_8 
REMARK    7  A    between atoms: C2_7  and  C4_9 
REMARK    8  A    between atoms: C4_9  and  C5_10 
ROOT
ATOM      1  C5  UNK     1      39.944  -0.222   9.343  1.00  0.00     0.076 A 
ATOM      2  C8  UNK     1      40.414  -0.265  10.656  1.00  0.00     0.085 A 
ATOM      3  C9  UNK     1      40.194  -1.287   8.478  1.00  0.00     0.085 A 
ATOM      4  C10 UNK     1      41.133  -1.373  11.103  1.00  0.00     0.074 A 
ATOM      5  C11 UNK     1      40.912  -2.395   8.925  1.00  0.00     0.074 A 
ATOM      6  C14 UNK     1      41.383  -2.438  10.238  1.00  0.00     0.071 A 
ENDROOT
BRANCH   1   7
ATOM      7  C4  UNK     1      39.191   0.938   8.877  1.00  0.00     0.165 C 
ATOM      8  O1  UNK     1      37.993   1.082   9.185  1.00  0.00    -0.292 OA
BRANCH   7   9
ATOM      9  C2  UNK     1      39.880   1.992   7.994  1.00  0.00     0.088 C 
BRANCH   9  10
ATOM     10  C1  UNK     1      40.879   2.862   8.760  1.00  0.00     0.046 C 
BRANCH  10  11
ATOM     11  C3  UNK     1      42.298   2.594   8.328  1.00  0.00    -0.058 A 
ATOM     12  C6  UNK     1      42.557   1.557   7.446  1.00  0.00     0.010 A 
ATOM     13  C12 UNK     1      43.870   1.308   7.046  1.00  0.00     0.037 A 
ATOM     14  C15 UNK     1      44.910   2.099   7.536  1.00  0.00     0.065 A 
ATOM     15  C13 UNK     1      44.635   3.140   8.424  1.00  0.00     0.037 A 
ATOM     16  C7  UNK     1      43.322   3.388   8.822  1.00  0.00     0.010 A 
BRANCH  14  17
ATOM     17  O5  UNK     1      46.190   1.858   7.145  1.00  0.00    -0.361 OA
ATOM     18  H14 UNK     1      46.178   1.302   6.348  1.00  0.00     0.217 HD
ENDBRANCH  14  17
ENDBRANCH  10  11
ENDBRANCH   9  10
ENDBRANCH   7   9
ENDBRANCH   1   7
BRANCH   2  19
ATOM     19  O2  UNK     1      40.181   0.764  11.519  1.00  0.00    -0.360 OA
ATOM     20  H11 UNK     1      40.991   0.999  11.999  1.00  0.00     0.217 HD
ENDBRANCH   2  19
BRANCH   3  21
ATOM     21  O3  UNK     1      39.743  -1.265   7.192  1.00  0.00    -0.360 OA
ATOM     22  H12 UNK     1      39.167  -2.035   7.043  1.00  0.00     0.217 HD
ENDBRANCH   3  21
BRANCH   6  23
ATOM     23  O4  UNK     1      42.085  -3.519  10.673  1.00  0.00    -0.361 OA
ATOM     24  H13 UNK     1      42.118  -3.503  11.645  1.00  0.00     0.217 HD
ENDBRANCH   6  23
TORSDOF 8
ENDMDL
MODEL 20
REMARK VINA RESULT:      -5.3      2.230      3.978
REMARK  8 active torsions:
REMARK  status: ('A' for Active; 'I' for Inactive)
REMARK    1  A    between atoms: O2_2  and  C8_13 
REMARK    2  A    between atoms: O3_3  and  C9_14 
REMARK    3  A    between atoms: O4_4  and  C14_19 
REMARK    4  A    between atoms: O5_5  and  C15_20 
REMARK    5  A    between atoms: C1_6  and  C2_7 
REMARK    6  A    between atoms: C1_6  and  C3_8 
REMARK    7  A    between atoms: C2_7  and  C4_9 
REMARK    8  A    between atoms: C4_9  and  C5_10 
ROOT
ATOM      1  C5  UNK     1      39.918  -0.231   9.337  1.00  0.00     0.076 A 
ATOM      2  C8  UNK     1      40.171  -1.293   8.468  1.00  0.00     0.085 A 
ATOM      3  C9  UNK     1      40.393  -0.275  10.648  1.00  0.00     0.085 A 
ATOM      4  C10 UNK     1      40.897  -2.398   8.911  1.00  0.00     0.074 A 
ATOM      5  C11 UNK     1      41.119  -1.379  11.091  1.00  0.00     0.074 A 
ATOM      6  C14 UNK     1      41.372  -2.442  10.222  1.00  0.00     0.071 A 
ENDROOT
BRANCH   1   7
ATOM      7  C4  UNK     1      39.159   0.925   8.873  1.00  0.00     0.165 C 
ATOM      8  O1  UNK     1      37.958   1.059   9.177  1.00  0.00    -0.292 OA
BRANCH   7   9
ATOM      9  C2  UNK     1      39.843   1.987   7.997  1.00  0.00     0.088 C 
BRANCH   9  10
ATOM     10  C1  UNK     1      40.840   2.856   8.767  1.00  0.00     0.046 C 
BRANCH  10  11
ATOM     11  C3  UNK     1      42.260   2.584   8.343  1.00  0.00    -0.058 A 
ATOM     12  C6  UNK     1      42.522   1.545   7.463  1.00  0.00     0.010 A 
ATOM     13  C12 UNK     1      43.837   1.294   7.070  1.00  0.00     0.037 A 
ATOM     14  C15 UNK     1      44.875   2.085   7.563  1.00  0.00     0.065 A 
ATOM     15  C13 UNK     1      44.598   3.128   8.447  1.00  0.00     0.037 A 
ATOM     16  C7  UNK     1      43.284   3.379   8.840  1.00  0.00     0.010 A 
BRANCH  14  17
ATOM     17  O5  UNK     1      46.157   1.841   7.178  1.00  0.00    -0.361 OA
ATOM     18  H14 UNK     1      46.526   1.137   7.737  1.00  0.00     0.217 HD
ENDBRANCH  14  17
ENDBRANCH  10  11
ENDBRANCH   9  10
ENDBRANCH   7   9
ENDBRANCH   1   7
BRANCH   2  19
ATOM     19  O2  UNK     1      39.717  -1.271   7.183  1.00  0.00    -0.360 OA
ATOM     20  H11 UNK     1      38.750  -1.191   7.162  1.00  0.00     0.217 HD
ENDBRANCH   2  19
BRANCH   3  21
ATOM     21  O3  UNK     1      40.158   0.753  11.512  1.00  0.00    -0.360 OA
ATOM     22  H12 UNK     1      40.974   0.948  12.004  1.00  0.00     0.217 HD
ENDBRANCH   3  21
BRANCH   6  23
ATOM     23  O4  UNK     1      42.080  -3.521  10.654  1.00  0.00    -0.361 OA
ATOM     24  H13 UNK     1      41.981  -3.596  11.619  1.00  0.00     0.217 HD
ENDBRANCH   6  23
TORSDOF 8
ENDMDL
