MODEL 1
REMARK VINA RESULT:      -8.3      0.000      0.000
REMARK  8 active torsions:
REMARK  status: ('A' for Active; 'I' for Inactive)
REMARK    1  A    between atoms: O2_2  and  C8_13 
REMARK    2  A    between atoms: O3_3  and  C9_14 
REMARK    3  A    between atoms: O4_4  and  C14_19 
REMARK    4  A    between atoms: O5_5  and  C15_20 
REMARK    5  A    between atoms: C1_6  and  C2_7 
REMARK    6  A    between atoms: C1_6  and  C3_8 
REMARK    7  A    between atoms: C2_7  and  C4_9 
REMARK    8  A    between atoms: C4_9  and  C5_10 
ROOT
ATOM      1  C5  UNK     1      40.221  13.117  -1.436  1.00  0.00     0.076 A 
ATOM      2  C8  UNK     1      39.173  12.831  -0.562  1.00  0.00     0.085 A 
ATOM      3  C9  UNK     1      41.384  12.347  -1.406  1.00  0.00     0.085 A 
ATOM      4  C10 UNK     1      39.287  11.776   0.342  1.00  0.00     0.074 A 
ATOM      5  C11 UNK     1      41.498  11.291  -0.503  1.00  0.00     0.074 A 
ATOM      6  C14 UNK     1      40.449  11.005   0.372  1.00  0.00     0.071 A 
ENDROOT
BRANCH   1   7
ATOM      7  C4  UNK     1      40.101  14.222  -2.381  1.00  0.00     0.165 C 
ATOM      8  O1  UNK     1      39.189  14.234  -3.231  1.00  0.00    -0.292 OA
BRANCH   7   9
ATOM      9  C2  UNK     1      41.110  15.382  -2.335  1.00  0.00     0.088 C 
BRANCH   9  10
ATOM     10  C1  UNK     1      40.573  16.675  -2.952  1.00  0.00     0.046 C 
BRANCH  10  11
ATOM     11  C3  UNK     1      39.892  17.542  -1.925  1.00  0.00    -0.058 A 
ATOM     12  C6  UNK     1      39.815  18.911  -2.132  1.00  0.00     0.010 A 
ATOM     13  C12 UNK     1      39.184  19.714  -1.181  1.00  0.00     0.037 A 
ATOM     14  C15 UNK     1      38.640  19.138  -0.032  1.00  0.00     0.065 A 
ATOM     15  C13 UNK     1      38.726  17.759   0.164  1.00  0.00     0.037 A 
ATOM     16  C7  UNK     1      39.355  16.957  -0.787  1.00  0.00     0.010 A 
BRANCH  14  17
ATOM     17  O5  UNK     1      38.024  19.921   0.895  1.00  0.00    -0.361 OA
ATOM     18  H14 UNK     1      37.085  20.008   0.660  1.00  0.00     0.217 HD
ENDBRANCH  14  17
ENDBRANCH  10  11
ENDBRANCH   9  10
ENDBRANCH   7   9
ENDBRANCH   1   7
BRANCH   2  19
ATOM     19  O2  UNK     1      38.028  13.571  -0.574  1.00  0.00    -0.360 OA
ATOM     20  H11 UNK     1      38.169  14.428  -0.140  1.00  0.00     0.217 HD
ENDBRANCH   2  19
BRANCH   3  21
ATOM     21  O3  UNK     1      42.420  12.609  -2.253  1.00  0.00    -0.360 OA
ATOM     22  H12 UNK     1      42.498  13.571  -2.372  1.00  0.00     0.217 HD
ENDBRANCH   3  21
BRANCH   6  23
ATOM     23  O4  UNK     1      40.561   9.975   1.254  1.00  0.00    -0.361 OA
ATOM     24  H13 UNK     1      40.299   9.150   0.811  1.00  0.00     0.217 HD
ENDBRANCH   6  23
TORSDOF 8
ENDMDL
MODEL 2
REMARK VINA RESULT:      -8.3      0.004      1.863
REMARK  8 active torsions:
REMARK  status: ('A' for Active; 'I' for Inactive)
REMARK    1  A    between atoms: O2_2  and  C8_13 
REMARK    2  A    between atoms: O3_3  and  C9_14 
REMARK    3  A    between atoms: O4_4  and  C14_19 
REMARK    4  A    between atoms: O5_5  and  C15_20 
REMARK    5  A    between atoms: C1_6  and  C2_7 
REMARK    6  A    between atoms: C1_6  and  C3_8 
REMARK    7  A    between atoms: C2_7  and  C4_9 
REMARK    8  A    between atoms: C4_9  and  C5_10 
ROOT
ATOM      1  C5  UNK     1      40.221  13.117  -1.436  1.00  0.00     0.076 A 
ATOM      2  C8  UNK     1      41.384  12.349  -1.404  1.00  0.00     0.085 A 
ATOM      3  C9  UNK     1      39.171  12.830  -0.563  1.00  0.00     0.085 A 
ATOM      4  C10 UNK     1      41.499  11.293  -0.499  1.00  0.00     0.074 A 
ATOM      5  C11 UNK     1      39.285  11.775   0.341  1.00  0.00     0.074 A 
ATOM      6  C14 UNK     1      40.449  11.006   0.373  1.00  0.00     0.071 A 
ENDROOT
BRANCH   1   7
ATOM      7  C4  UNK     1      40.103  14.221  -2.382  1.00  0.00     0.165 C 
ATOM      8  O1  UNK     1      39.192  14.234  -3.233  1.00  0.00    -0.292 OA
BRANCH   7   9
ATOM      9  C2  UNK     1      41.111  15.381  -2.333  1.00  0.00     0.088 C 
BRANCH   9  10
ATOM     10  C1  UNK     1      40.576  16.674  -2.951  1.00  0.00     0.046 C 
BRANCH  10  11
ATOM     11  C3  UNK     1      39.892  17.541  -1.924  1.00  0.00    -0.058 A 
ATOM     12  C6  UNK     1      39.812  18.909  -2.132  1.00  0.00     0.010 A 
ATOM     13  C12 UNK     1      39.179  19.712  -1.182  1.00  0.00     0.037 A 
ATOM     14  C15 UNK     1      38.635  19.135  -0.033  1.00  0.00     0.065 A 
ATOM     15  C13 UNK     1      38.723  17.757   0.164  1.00  0.00     0.037 A 
ATOM     16  C7  UNK     1      39.355  16.955  -0.787  1.00  0.00     0.010 A 
BRANCH  14  17
ATOM     17  O5  UNK     1      38.017  19.917   0.892  1.00  0.00    -0.361 OA
ATOM     18  H14 UNK     1      38.691  20.404   1.396  1.00  0.00     0.217 HD
ENDBRANCH  14  17
ENDBRANCH  10  11
ENDBRANCH   9  10
ENDBRANCH   7   9
ENDBRANCH   1   7
BRANCH   2  19
ATOM     19  O2  UNK     1      42.423  12.613  -2.247  1.00  0.00    -0.360 OA
ATOM     20  H11 UNK     1      42.218  13.373  -2.814  1.00  0.00     0.217 HD
ENDBRANCH   2  19
BRANCH   3  21
ATOM     21  O3  UNK     1      38.025  13.569  -0.578  1.00  0.00    -0.360 OA
ATOM     22  H12 UNK     1      38.229  14.476  -0.293  1.00  0.00     0.217 HD
ENDBRANCH   3  21
BRANCH   6  23
ATOM     23  O4  UNK     1      40.560   9.975   1.255  1.00  0.00    -0.361 OA
ATOM     24  H13 UNK     1      39.710   9.862   1.716  1.00  0.00     0.217 HD
ENDBRANCH   6  23
TORSDOF 8
ENDMDL
MODEL 3
REMARK VINA RESULT:      -8.2      1.462      6.305
REMARK  8 active torsions:
REMARK  status: ('A' for Active; 'I' for Inactive)
REMARK    1  A    between atoms: O2_2  and  C8_13 
REMARK    2  A    between atoms: O3_3  and  C9_14 
REMARK    3  A    between atoms: O4_4  and  C14_19 
REMARK    4  A    between atoms: O5_5  and  C15_20 
REMARK    5  A    between atoms: C1_6  and  C2_7 
REMARK    6  A    between atoms: C1_6  and  C3_8 
REMARK    7  A    between atoms: C2_7  and  C4_9 
REMARK    8  A    between atoms: C4_9  and  C5_10 
ROOT
ATOM      1  C5  UNK     1      39.863  16.763  -2.152  1.00  0.00     0.076 A 
ATOM      2  C8  UNK     1      39.181  16.886  -0.942  1.00  0.00     0.085 A 
ATOM      3  C9  UNK     1      40.208  17.904  -2.877  1.00  0.00     0.085 A 
ATOM      4  C10 UNK     1      38.843  18.149  -0.457  1.00  0.00     0.074 A 
ATOM      5  C11 UNK     1      39.871  19.167  -2.392  1.00  0.00     0.074 A 
ATOM      6  C14 UNK     1      39.187  19.290  -1.182  1.00  0.00     0.071 A 
ENDROOT
BRANCH   1   7
ATOM      7  C4  UNK     1      40.216  15.442  -2.658  1.00  0.00     0.165 C 
ATOM      8  O1  UNK     1      39.353  14.710  -3.180  1.00  0.00    -0.292 OA
BRANCH   7   9
ATOM      9  C2  UNK     1      41.667  14.942  -2.546  1.00  0.00     0.088 C 
BRANCH   9  10
ATOM     10  C1  UNK     1      42.113  14.703  -1.102  1.00  0.00     0.046 C 
BRANCH  10  11
ATOM     11  C3  UNK     1      41.580  13.400  -0.563  1.00  0.00    -0.058 A 
ATOM     12  C6  UNK     1      41.697  12.248  -1.326  1.00  0.00     0.010 A 
ATOM     13  C12 UNK     1      41.204  11.042  -0.827  1.00  0.00     0.037 A 
ATOM     14  C15 UNK     1      40.598  11.003   0.430  1.00  0.00     0.065 A 
ATOM     15  C13 UNK     1      40.486  12.169   1.187  1.00  0.00     0.037 A 
ATOM     16  C7  UNK     1      40.980  13.374   0.688  1.00  0.00     0.010 A 
BRANCH  14  17
ATOM     17  O5  UNK     1      40.118   9.827   0.917  1.00  0.00    -0.361 OA
ATOM     18  H14 UNK     1      40.784   9.434   1.507  1.00  0.00     0.217 HD
ENDBRANCH  14  17
ENDBRANCH  10  11
ENDBRANCH   9  10
ENDBRANCH   7   9
ENDBRANCH   1   7
BRANCH   2  19
ATOM     19  O2  UNK     1      38.834  15.785  -0.217  1.00  0.00    -0.360 OA
ATOM     20  H11 UNK     1      38.627  16.029   0.699  1.00  0.00     0.217 HD
ENDBRANCH   2  19
BRANCH   3  21
ATOM     21  O3  UNK     1      40.876  17.806  -4.062  1.00  0.00    -0.360 OA
ATOM     22  H12 UNK     1      41.261  16.916  -4.137  1.00  0.00     0.217 HD
ENDBRANCH   3  21
BRANCH   6  23
ATOM     23  O4  UNK     1      38.858  20.523  -0.709  1.00  0.00    -0.361 OA
ATOM     24  H13 UNK     1      39.207  20.618   0.193  1.00  0.00     0.217 HD
ENDBRANCH   6  23
TORSDOF 8
ENDMDL
MODEL 4
REMARK VINA RESULT:      -8.2      1.455      6.464
REMARK  8 active torsions:
REMARK  status: ('A' for Active; 'I' for Inactive)
REMARK    1  A    between atoms: O2_2  and  C8_13 
REMARK    2  A    between atoms: O3_3  and  C9_14 
REMARK    3  A    between atoms: O4_4  and  C14_19 
REMARK    4  A    between atoms: O5_5  and  C15_20 
REMARK    5  A    between atoms: C1_6  and  C2_7 
REMARK    6  A    between atoms: C1_6  and  C3_8 
REMARK    7  A    between atoms: C2_7  and  C4_9 
REMARK    8  A    between atoms: C4_9  and  C5_10 
ROOT
ATOM      1  C5  UNK     1      39.865  16.735  -2.129  1.00  0.00     0.076 A 
ATOM      2  C8  UNK     1      40.201  17.879  -2.853  1.00  0.00     0.085 A 
ATOM      3  C9  UNK     1      39.175  16.851  -0.922  1.00  0.00     0.085 A 
ATOM      4  C10 UNK     1      39.847  19.139  -2.370  1.00  0.00     0.074 A 
ATOM      5  C11 UNK     1      38.821  18.110  -0.439  1.00  0.00     0.074 A 
ATOM      6  C14 UNK     1      39.157  19.255  -1.164  1.00  0.00     0.071 A 
ENDROOT
BRANCH   1   7
ATOM      7  C4  UNK     1      40.235  15.418  -2.635  1.00  0.00     0.165 C 
ATOM      8  O1  UNK     1      39.378  14.670  -3.144  1.00  0.00    -0.292 OA
BRANCH   7   9
ATOM      9  C2  UNK     1      41.695  14.943  -2.537  1.00  0.00     0.088 C 
BRANCH   9  10
ATOM     10  C1  UNK     1      42.152  14.689  -1.100  1.00  0.00     0.046 C 
BRANCH  10  11
ATOM     11  C3  UNK     1      41.604  13.392  -0.562  1.00  0.00    -0.058 A 
ATOM     12  C6  UNK     1      41.005  13.372   0.689  1.00  0.00     0.010 A 
ATOM     13  C12 UNK     1      40.496  12.172   1.187  1.00  0.00     0.037 A 
ATOM     14  C15 UNK     1      40.595  11.005   0.428  1.00  0.00     0.065 A 
ATOM     15  C13 UNK     1      41.200  11.039  -0.828  1.00  0.00     0.037 A 
ATOM     16  C7  UNK     1      41.708  12.239  -1.326  1.00  0.00     0.010 A 
BRANCH  14  17
ATOM     17  O5  UNK     1      40.098   9.835   0.913  1.00  0.00    -0.361 OA
ATOM     18  H14 UNK     1      40.328   9.761   1.854  1.00  0.00     0.217 HD
ENDBRANCH  14  17
ENDBRANCH  10  11
ENDBRANCH   9  10
ENDBRANCH   7   9
ENDBRANCH   1   7
BRANCH   2  19
ATOM     19  O2  UNK     1      40.874  17.788  -4.035  1.00  0.00    -0.360 OA
ATOM     20  H11 UNK     1      41.587  17.132  -3.973  1.00  0.00     0.217 HD
ENDBRANCH   2  19
BRANCH   3  21
ATOM     21  O3  UNK     1      38.836  15.746  -0.199  1.00  0.00    -0.360 OA
ATOM     22  H12 UNK     1      38.429  15.091  -0.792  1.00  0.00     0.217 HD
ENDBRANCH   3  21
BRANCH   6  23
ATOM     23  O4  UNK     1      38.813  20.484  -0.692  1.00  0.00    -0.361 OA
ATOM     24  H13 UNK     1      38.721  20.436   0.275  1.00  0.00     0.217 HD
ENDBRANCH   6  23
TORSDOF 8
ENDMDL
MODEL 5
REMARK VINA RESULT:      -7.2      1.624      6.576
REMARK  8 active torsions:
REMARK  status: ('A' for Active; 'I' for Inactive)
REMARK    1  A    between atoms: O2_2  and  C8_13 
REMARK    2  A    between atoms: O3_3  and  C9_14 
REMARK    3  A    between atoms: O4_4  and  C14_19 
REMARK    4  A    between atoms: O5_5  and  C15_20 
REMARK    5  A    between atoms: C1_6  and  C2_7 
REMARK    6  A    between atoms: C1_6  and  C3_8 
REMARK    7  A    between atoms: C2_7  and  C4_9 
REMARK    8  A    between atoms: C4_9  and  C5_10 
ROOT
ATOM      1  C5  UNK     1      39.616  17.896  -1.829  1.00  0.00     0.076 A 
ATOM      2  C8  UNK     1      39.848  19.270  -1.789  1.00  0.00     0.085 A 
ATOM      3  C9  UNK     1      38.817  17.296  -0.856  1.00  0.00     0.085 A 
ATOM      4  C10 UNK     1      39.283  20.045  -0.777  1.00  0.00     0.074 A 
ATOM      5  C11 UNK     1      38.250  18.069   0.156  1.00  0.00     0.074 A 
ATOM      6  C14 UNK     1      38.483  19.445   0.197  1.00  0.00     0.071 A 
ENDROOT
BRANCH   1   7
ATOM      7  C4  UNK     1      40.208  17.087  -2.889  1.00  0.00     0.165 C 
ATOM      8  O1  UNK     1      40.656  17.623  -3.921  1.00  0.00    -0.292 OA
BRANCH   7   9
ATOM      9  C2  UNK     1      40.278  15.558  -2.736  1.00  0.00     0.088 C 
BRANCH   9  10
ATOM     10  C1  UNK     1      41.590  15.073  -2.116  1.00  0.00     0.046 C 
BRANCH  10  11
ATOM     11  C3  UNK     1      41.406  13.781  -1.362  1.00  0.00    -0.058 A 
ATOM     12  C6  UNK     1      41.786  12.586  -1.954  1.00  0.00     0.010 A 
ATOM     13  C12 UNK     1      41.616  11.390  -1.257  1.00  0.00     0.037 A 
ATOM     14  C15 UNK     1      41.065  11.403   0.025  1.00  0.00     0.065 A 
ATOM     15  C13 UNK     1      40.685  12.612   0.609  1.00  0.00     0.037 A 
ATOM     16  C7  UNK     1      40.857  13.807  -0.088  1.00  0.00     0.010 A 
BRANCH  14  17
ATOM     17  O5  UNK     1      40.900  10.237   0.706  1.00  0.00    -0.361 OA
ATOM     18  H14 UNK     1      41.702  10.058   1.225  1.00  0.00     0.217 HD
ENDBRANCH  14  17
ENDBRANCH  10  11
ENDBRANCH   9  10
ENDBRANCH   7   9
ENDBRANCH   1   7
BRANCH   2  19
ATOM     19  O2  UNK     1      40.626  19.878  -2.730  1.00  0.00    -0.360 OA
ATOM     20  H11 UNK     1      40.105  20.512  -3.248  1.00  0.00     0.217 HD
ENDBRANCH   2  19
BRANCH   3  21
ATOM     21  O3  UNK     1      38.576  15.954  -0.877  1.00  0.00    -0.360 OA
ATOM     22  H12 UNK     1      37.718  15.778  -0.454  1.00  0.00     0.217 HD
ENDBRANCH   3  21
BRANCH   6  23
ATOM     23  O4  UNK     1      37.932  20.199   1.185  1.00  0.00    -0.361 OA
ATOM     24  H13 UNK     1      38.330  21.086   1.164  1.00  0.00     0.217 HD
ENDBRANCH   6  23
TORSDOF 8
ENDMDL
MODEL 6
REMARK VINA RESULT:      -7.2      1.630      6.503
REMARK  8 active torsions:
REMARK  status: ('A' for Active; 'I' for Inactive)
REMARK    1  A    between atoms: O2_2  and  C8_13 
REMARK    2  A    between atoms: O3_3  and  C9_14 
REMARK    3  A    between atoms: O4_4  and  C14_19 
REMARK    4  A    between atoms: O5_5  and  C15_20 
REMARK    5  A    between atoms: C1_6  and  C2_7 
REMARK    6  A    between atoms: C1_6  and  C3_8 
REMARK    7  A    between atoms: C2_7  and  C4_9 
REMARK    8  A    between atoms: C4_9  and  C5_10 
ROOT
ATOM      1  C5  UNK     1      39.632  17.920  -1.855  1.00  0.00     0.076 A 
ATOM      2  C8  UNK     1      38.836  17.333  -0.871  1.00  0.00     0.085 A 
ATOM      3  C9  UNK     1      39.867  19.295  -1.833  1.00  0.00     0.085 A 
ATOM      4  C10 UNK     1      38.274  18.121   0.134  1.00  0.00     0.074 A 
ATOM      5  C11 UNK     1      39.306  20.083  -0.829  1.00  0.00     0.074 A 
ATOM      6  C14 UNK     1      38.509  19.496   0.155  1.00  0.00     0.071 A 
ENDROOT
BRANCH   1   7
ATOM      7  C4  UNK     1      40.219  17.095  -2.905  1.00  0.00     0.165 C 
ATOM      8  O1  UNK     1      40.684  17.617  -3.937  1.00  0.00    -0.292 OA
BRANCH   7   9
ATOM      9  C2  UNK     1      40.264  15.567  -2.741  1.00  0.00     0.088 C 
BRANCH   9  10
ATOM     10  C1  UNK     1      41.574  15.062  -2.133  1.00  0.00     0.046 C 
BRANCH  10  11
ATOM     11  C3  UNK     1      41.378  13.772  -1.379  1.00  0.00    -0.058 A 
ATOM     12  C6  UNK     1      40.801  13.800  -0.119  1.00  0.00     0.010 A 
ATOM     13  C12 UNK     1      40.619  12.605   0.579  1.00  0.00     0.037 A 
ATOM     14  C15 UNK     1      41.018  11.396   0.008  1.00  0.00     0.065 A 
ATOM     15  C13 UNK     1      41.597  11.382  -1.261  1.00  0.00     0.037 A 
ATOM     16  C7  UNK     1      41.778  12.576  -1.959  1.00  0.00     0.010 A 
BRANCH  14  17
ATOM     17  O5  UNK     1      40.839  10.231   0.687  1.00  0.00    -0.361 OA
ATOM     18  H14 UNK     1      40.316  10.410   1.487  1.00  0.00     0.217 HD
ENDBRANCH  14  17
ENDBRANCH  10  11
ENDBRANCH   9  10
ENDBRANCH   7   9
ENDBRANCH   1   7
BRANCH   2  19
ATOM     19  O2  UNK     1      38.594  15.992  -0.873  1.00  0.00    -0.360 OA
ATOM     20  H11 UNK     1      38.015  15.747  -0.133  1.00  0.00     0.217 HD
ENDBRANCH   2  19
BRANCH   3  21
ATOM     21  O3  UNK     1      40.642  19.888  -2.785  1.00  0.00    -0.360 OA
ATOM     22  H12 UNK     1      41.335  20.413  -2.348  1.00  0.00     0.217 HD
ENDBRANCH   3  21
BRANCH   6  23
ATOM     23  O4  UNK     1      37.961  20.265   1.135  1.00  0.00    -0.361 OA
ATOM     24  H13 UNK     1      37.355  20.908   0.729  1.00  0.00     0.217 HD
ENDBRANCH   6  23
TORSDOF 8
ENDMDL
MODEL 7
REMARK VINA RESULT:      -6.2      9.177     12.143
REMARK  8 active torsions:
REMARK  status: ('A' for Active; 'I' for Inactive)
REMARK    1  A    between atoms: O2_2  and  C8_13 
REMARK    2  A    between atoms: O3_3  and  C9_14 
REMARK    3  A    between atoms: O4_4  and  C14_19 
REMARK    4  A    between atoms: O5_5  and  C15_20 
REMARK    5  A    between atoms: C1_6  and  C2_7 
REMARK    6  A    between atoms: C1_6  and  C3_8 
REMARK    7  A    between atoms: C2_7  and  C4_9 
REMARK    8  A    between atoms: C4_9  and  C5_10 
ROOT
ATOM      1  C5  UNK     1      49.136  12.756  -5.916  1.00  0.00     0.076 A 
ATOM      2  C8  UNK     1      49.769  13.999  -5.932  1.00  0.00     0.085 A 
ATOM      3  C9  UNK     1      48.023  12.551  -5.101  1.00  0.00     0.085 A 
ATOM      4  C10 UNK     1      49.289  15.036  -5.132  1.00  0.00     0.074 A 
ATOM      5  C11 UNK     1      47.542  13.588  -4.302  1.00  0.00     0.074 A 
ATOM      6  C14 UNK     1      48.176  14.832  -4.317  1.00  0.00     0.071 A 
ENDROOT
BRANCH   1   7
ATOM      7  C4  UNK     1      49.638  11.672  -6.752  1.00  0.00     0.165 C 
ATOM      8  O1  UNK     1      49.069  11.380  -7.822  1.00  0.00    -0.292 OA
BRANCH   7   9
ATOM      9  C2  UNK     1      50.879  10.878  -6.311  1.00  0.00     0.088 C 
BRANCH   9  10
ATOM     10  C1  UNK     1      50.593   9.890  -5.178  1.00  0.00     0.046 C 
BRANCH  10  11
ATOM     11  C3  UNK     1      50.980  10.455  -3.836  1.00  0.00    -0.058 A 
ATOM     12  C6  UNK     1      52.274  10.909  -3.635  1.00  0.00     0.010 A 
ATOM     13  C12 UNK     1      52.632  11.433  -2.392  1.00  0.00     0.037 A 
ATOM     14  C15 UNK     1      51.691  11.494  -1.363  1.00  0.00     0.065 A 
ATOM     15  C13 UNK     1      50.392  11.033  -1.579  1.00  0.00     0.037 A 
ATOM     16  C7  UNK     1      50.035  10.511  -2.822  1.00  0.00     0.010 A 
BRANCH  14  17
ATOM     17  O5  UNK     1      52.040  12.006  -0.152  1.00  0.00    -0.361 OA
ATOM     18  H14 UNK     1      51.934  11.316   0.524  1.00  0.00     0.217 HD
ENDBRANCH  14  17
ENDBRANCH  10  11
ENDBRANCH   9  10
ENDBRANCH   7   9
ENDBRANCH   1   7
BRANCH   2  19
ATOM     19  O2  UNK     1      50.858  14.221  -6.721  1.00  0.00    -0.360 OA
ATOM     20  H11 UNK     1      50.838  15.120  -7.086  1.00  0.00     0.217 HD
ENDBRANCH   2  19
BRANCH   3  21
ATOM     21  O3  UNK     1      47.389  11.344  -5.071  1.00  0.00    -0.360 OA
ATOM     22  H12 UNK     1      47.703  10.839  -4.302  1.00  0.00     0.217 HD
ENDBRANCH   3  21
BRANCH   6  23
ATOM     23  O4  UNK     1      47.708  15.843  -3.537  1.00  0.00    -0.361 OA
ATOM     24  H13 UNK     1      48.458  16.390  -3.247  1.00  0.00     0.217 HD
ENDBRANCH   6  23
TORSDOF 8
ENDMDL
MODEL 8
REMARK VINA RESULT:      -6.2      9.176     12.047
REMARK  8 active torsions:
REMARK  status: ('A' for Active; 'I' for Inactive)
REMARK    1  A    between atoms: O2_2  and  C8_13 
REMARK    2  A    between atoms: O3_3  and  C9_14 
REMARK    3  A    between atoms: O4_4  and  C14_19 
REMARK    4  A    between atoms: O5_5  and  C15_20 
REMARK    5  A    between atoms: C1_6  and  C2_7 
REMARK    6  A    between atoms: C1_6  and  C3_8 
REMARK    7  A    between atoms: C2_7  and  C4_9 
REMARK    8  A    between atoms: C4_9  and  C5_10 
ROOT
ATOM      1  C5  UNK     1      49.135  12.756  -5.920  1.00  0.00     0.076 A 
ATOM      2  C8  UNK     1      48.021  12.551  -5.106  1.00  0.00     0.085 A 
ATOM      3  C9  UNK     1      49.769  13.999  -5.934  1.00  0.00     0.085 A 
ATOM      4  C10 UNK     1      47.541  13.588  -4.307  1.00  0.00     0.074 A 
ATOM      5  C11 UNK     1      49.290  15.036  -5.134  1.00  0.00     0.074 A 
ATOM      6  C14 UNK     1      48.174  14.830  -4.321  1.00  0.00     0.071 A 
ENDROOT
BRANCH   1   7
ATOM      7  C4  UNK     1      49.637  11.671  -6.755  1.00  0.00     0.165 C 
ATOM      8  O1  UNK     1      49.073  11.382  -7.828  1.00  0.00    -0.292 OA
BRANCH   7   9
ATOM      9  C2  UNK     1      50.873  10.872  -6.309  1.00  0.00     0.088 C 
BRANCH   9  10
ATOM     10  C1  UNK     1      50.580   9.889  -5.174  1.00  0.00     0.046 C 
BRANCH  10  11
ATOM     11  C3  UNK     1      50.972  10.455  -3.833  1.00  0.00    -0.058 A 
ATOM     12  C6  UNK     1      52.268  10.909  -3.637  1.00  0.00     0.010 A 
ATOM     13  C12 UNK     1      52.630  11.433  -2.395  1.00  0.00     0.037 A 
ATOM     14  C15 UNK     1      51.693  11.495  -1.364  1.00  0.00     0.065 A 
ATOM     15  C13 UNK     1      50.392  11.035  -1.574  1.00  0.00     0.037 A 
ATOM     16  C7  UNK     1      50.030  10.512  -2.816  1.00  0.00     0.010 A 
BRANCH  14  17
ATOM     17  O5  UNK     1      52.046  12.007  -0.154  1.00  0.00    -0.361 OA
ATOM     18  H14 UNK     1      52.408  11.294   0.397  1.00  0.00     0.217 HD
ENDBRANCH  14  17
ENDBRANCH  10  11
ENDBRANCH   9  10
ENDBRANCH   7   9
ENDBRANCH   1   7
BRANCH   2  19
ATOM     19  O2  UNK     1      47.387  11.345  -5.077  1.00  0.00    -0.360 OA
ATOM     20  H11 UNK     1      46.728  11.287  -5.788  1.00  0.00     0.217 HD
ENDBRANCH   2  19
BRANCH   3  21
ATOM     21  O3  UNK     1      50.860  14.220  -6.721  1.00  0.00    -0.360 OA
ATOM     22  H12 UNK     1      51.239  15.089  -6.502  1.00  0.00     0.217 HD
ENDBRANCH   3  21
BRANCH   6  23
ATOM     23  O4  UNK     1      47.706  15.843  -3.542  1.00  0.00    -0.361 OA
ATOM     24  H13 UNK     1      48.445  16.215  -3.030  1.00  0.00     0.217 HD
ENDBRANCH   6  23
TORSDOF 8
ENDMDL
MODEL 9
REMARK VINA RESULT:      -6.2      9.181     12.076
REMARK  8 active torsions:
REMARK  status: ('A' for Active; 'I' for Inactive)
REMARK    1  A    between atoms: O2_2  and  C8_13 
REMARK    2  A    between atoms: O3_3  and  C9_14 
REMARK    3  A    between atoms: O4_4  and  C14_19 
REMARK    4  A    between atoms: O5_5  and  C15_20 
REMARK    5  A    between atoms: C1_6  and  C2_7 
REMARK    6  A    between atoms: C1_6  and  C3_8 
REMARK    7  A    between atoms: C2_7  and  C4_9 
REMARK    8  A    between atoms: C4_9  and  C5_10 
ROOT
ATOM      1  C5  UNK     1      49.138  12.755  -5.923  1.00  0.00     0.076 A 
ATOM      2  C8  UNK     1      48.023  12.551  -5.110  1.00  0.00     0.085 A 
ATOM      3  C9  UNK     1      49.773  13.997  -5.935  1.00  0.00     0.085 A 
ATOM      4  C10 UNK     1      47.544  13.588  -4.310  1.00  0.00     0.074 A 
ATOM      5  C11 UNK     1      49.295  15.034  -5.136  1.00  0.00     0.074 A 
ATOM      6  C14 UNK     1      48.179  14.829  -4.322  1.00  0.00     0.071 A 
ENDROOT
BRANCH   1   7
ATOM      7  C4  UNK     1      49.639  11.670  -6.759  1.00  0.00     0.165 C 
ATOM      8  O1  UNK     1      49.072  11.379  -7.830  1.00  0.00    -0.292 OA
BRANCH   7   9
ATOM      9  C2  UNK     1      50.877  10.872  -6.316  1.00  0.00     0.088 C 
BRANCH   9  10
ATOM     10  C1  UNK     1      50.587   9.887  -5.181  1.00  0.00     0.046 C 
BRANCH  10  11
ATOM     11  C3  UNK     1      50.977  10.453  -3.839  1.00  0.00    -0.058 A 
ATOM     12  C6  UNK     1      50.034  10.512  -2.825  1.00  0.00     0.010 A 
ATOM     13  C12 UNK     1      50.395  11.034  -1.582  1.00  0.00     0.037 A 
ATOM     14  C15 UNK     1      51.696  11.494  -1.371  1.00  0.00     0.065 A 
ATOM     15  C13 UNK     1      52.635  11.429  -2.400  1.00  0.00     0.037 A 
ATOM     16  C7  UNK     1      52.274  10.906  -3.642  1.00  0.00     0.010 A 
BRANCH  14  17
ATOM     17  O5  UNK     1      52.048  12.003  -0.159  1.00  0.00    -0.361 OA
ATOM     18  H14 UNK     1      52.803  11.498   0.188  1.00  0.00     0.217 HD
ENDBRANCH  14  17
ENDBRANCH  10  11
ENDBRANCH   9  10
ENDBRANCH   7   9
ENDBRANCH   1   7
BRANCH   2  19
ATOM     19  O2  UNK     1      47.387  11.345  -5.082  1.00  0.00    -0.360 OA
ATOM     20  H11 UNK     1      47.050  11.156  -4.191  1.00  0.00     0.217 HD
ENDBRANCH   2  19
BRANCH   3  21
ATOM     21  O3  UNK     1      50.865  14.218  -6.722  1.00  0.00    -0.360 OA
ATOM     22  H12 UNK     1      51.090  15.164  -6.696  1.00  0.00     0.217 HD
ENDBRANCH   3  21
BRANCH   6  23
ATOM     23  O4  UNK     1      47.711  15.842  -3.542  1.00  0.00    -0.361 OA
ATOM     24  H13 UNK     1      48.464  16.277  -3.107  1.00  0.00     0.217 HD
ENDBRANCH   6  23
TORSDOF 8
ENDMDL
MODEL 10
REMARK VINA RESULT:      -6.2      9.177     12.167
REMARK  8 active torsions:
REMARK  status: ('A' for Active; 'I' for Inactive)
REMARK    1  A    between atoms: O2_2  and  C8_13 
REMARK    2  A    between atoms: O3_3  and  C9_14 
REMARK    3  A    between atoms: O4_4  and  C14_19 
REMARK    4  A    between atoms: O5_5  and  C15_20 
REMARK    5  A    between atoms: C1_6  and  C2_7 
REMARK    6  A    between atoms: C1_6  and  C3_8 
REMARK    7  A    between atoms: C2_7  and  C4_9 
REMARK    8  A    between atoms: C4_9  and  C5_10 
ROOT
ATOM      1  C5  UNK     1      49.132  12.757  -5.919  1.00  0.00     0.076 A 
ATOM      2  C8  UNK     1      49.765  14.000  -5.936  1.00  0.00     0.085 A 
ATOM      3  C9  UNK     1      48.020  12.553  -5.102  1.00  0.00     0.085 A 
ATOM      4  C10 UNK     1      49.287  15.038  -5.136  1.00  0.00     0.074 A 
ATOM      5  C11 UNK     1      47.541  13.590  -4.302  1.00  0.00     0.074 A 
ATOM      6  C14 UNK     1      48.175  14.833  -4.319  1.00  0.00     0.071 A 
ENDROOT
BRANCH   1   7
ATOM      7  C4  UNK     1      49.632  11.673  -6.756  1.00  0.00     0.165 C 
ATOM      8  O1  UNK     1      49.062  11.381  -7.825  1.00  0.00    -0.292 OA
BRANCH   7   9
ATOM      9  C2  UNK     1      50.874  10.879  -6.318  1.00  0.00     0.088 C 
BRANCH   9  10
ATOM     10  C1  UNK     1      50.590   9.890  -5.185  1.00  0.00     0.046 C 
BRANCH  10  11
ATOM     11  C3  UNK     1      50.978  10.455  -3.843  1.00  0.00    -0.058 A 
ATOM     12  C6  UNK     1      50.035  10.511  -2.828  1.00  0.00     0.010 A 
ATOM     13  C12 UNK     1      50.394  11.033  -1.585  1.00  0.00     0.037 A 
ATOM     14  C15 UNK     1      51.694  11.495  -1.372  1.00  0.00     0.065 A 
ATOM     15  C13 UNK     1      52.633  11.433  -2.402  1.00  0.00     0.037 A 
ATOM     16  C7  UNK     1      52.274  10.910  -3.644  1.00  0.00     0.010 A 
BRANCH  14  17
ATOM     17  O5  UNK     1      52.044  12.003  -0.160  1.00  0.00    -0.361 OA
ATOM     18  H14 UNK     1      51.496  11.587   0.527  1.00  0.00     0.217 HD
ENDBRANCH  14  17
ENDBRANCH  10  11
ENDBRANCH   9  10
ENDBRANCH   7   9
ENDBRANCH   1   7
BRANCH   2  19
ATOM     19  O2  UNK     1      50.853  14.222  -6.727  1.00  0.00    -0.360 OA
ATOM     20  H11 UNK     1      50.992  15.174  -6.858  1.00  0.00     0.217 HD
ENDBRANCH   2  19
BRANCH   3  21
ATOM     21  O3  UNK     1      47.385  11.346  -5.071  1.00  0.00    -0.360 OA
ATOM     22  H12 UNK     1      47.252  11.033  -5.983  1.00  0.00     0.217 HD
ENDBRANCH   3  21
BRANCH   6  23
ATOM     23  O4  UNK     1      47.708  15.844  -3.538  1.00  0.00    -0.361 OA
ATOM     24  H13 UNK     1      47.742  15.565  -2.607  1.00  0.00     0.217 HD
ENDBRANCH   6  23
TORSDOF 8
ENDMDL
MODEL 11
REMARK VINA RESULT:      -6.1      9.091     11.523
REMARK  8 active torsions:
REMARK  status: ('A' for Active; 'I' for Inactive)
REMARK    1  A    between atoms: O2_2  and  C8_13 
REMARK    2  A    between atoms: O3_3  and  C9_14 
REMARK    3  A    between atoms: O4_4  and  C14_19 
REMARK    4  A    between atoms: O5_5  and  C15_20 
REMARK    5  A    between atoms: C1_6  and  C2_7 
REMARK    6  A    between atoms: C1_6  and  C3_8 
REMARK    7  A    between atoms: C2_7  and  C4_9 
REMARK    8  A    between atoms: C4_9  and  C5_10 
ROOT
ATOM      1  C5  UNK     1      49.169  12.798  -5.958  1.00  0.00     0.076 A 
ATOM      2  C8  UNK     1      48.117  12.540  -5.079  1.00  0.00     0.085 A 
ATOM      3  C9  UNK     1      49.734  14.072  -6.011  1.00  0.00     0.085 A 
ATOM      4  C10 UNK     1      47.631  13.554  -4.255  1.00  0.00     0.074 A 
ATOM      5  C11 UNK     1      49.249  15.087  -5.187  1.00  0.00     0.074 A 
ATOM      6  C14 UNK     1      48.196  14.828  -4.308  1.00  0.00     0.071 A 
ENDROOT
BRANCH   1   7
ATOM      7  C4  UNK     1      49.677  11.737  -6.819  1.00  0.00     0.165 C 
ATOM      8  O1  UNK     1      50.692  11.089  -6.498  1.00  0.00    -0.292 OA
BRANCH   7   9
ATOM      9  C2  UNK     1      48.956  11.412  -8.139  1.00  0.00     0.088 C 
BRANCH   9  10
ATOM     10  C1  UNK     1      48.316  10.023  -8.152  1.00  0.00     0.046 C 
BRANCH  10  11
ATOM     11  C3  UNK     1      46.844  10.091  -8.470  1.00  0.00    -0.058 A 
ATOM     12  C6  UNK     1      46.234   9.022  -9.109  1.00  0.00     0.010 A 
ATOM     13  C12 UNK     1      44.872   9.085  -9.403  1.00  0.00     0.037 A 
ATOM     14  C15 UNK     1      44.135  10.218  -9.055  1.00  0.00     0.065 A 
ATOM     15  C13 UNK     1      44.761  11.287  -8.412  1.00  0.00     0.037 A 
ATOM     16  C7  UNK     1      46.123  11.223  -8.118  1.00  0.00     0.010 A 
BRANCH  14  17
ATOM     17  O5  UNK     1      42.806  10.279  -9.340  1.00  0.00    -0.361 OA
ATOM     18  H14 UNK     1      42.530   9.436  -9.736  1.00  0.00     0.217 HD
ENDBRANCH  14  17
ENDBRANCH  10  11
ENDBRANCH   9  10
ENDBRANCH   7   9
ENDBRANCH   1   7
BRANCH   2  19
ATOM     19  O2  UNK     1      47.549  11.302  -5.010  1.00  0.00    -0.360 OA
ATOM     20  H11 UNK     1      47.041  11.113  -5.815  1.00  0.00     0.217 HD
ENDBRANCH   2  19
BRANCH   3  21
ATOM     21  O3  UNK     1      50.764  14.346  -6.863  1.00  0.00    -0.360 OA
ATOM     22  H12 UNK     1      50.958  13.554  -7.392  1.00  0.00     0.217 HD
ENDBRANCH   3  21
BRANCH   6  23
ATOM     23  O4  UNK     1      47.722  15.818  -3.505  1.00  0.00    -0.361 OA
ATOM     24  H13 UNK     1      47.026  16.303  -3.980  1.00  0.00     0.217 HD
ENDBRANCH   6  23
TORSDOF 8
ENDMDL
MODEL 12
REMARK VINA RESULT:      -6.1      9.098     11.593
REMARK  8 active torsions:
REMARK  status: ('A' for Active; 'I' for Inactive)
REMARK    1  A    between atoms: O2_2  and  C8_13 
REMARK    2  A    between atoms: O3_3  and  C9_14 
REMARK    3  A    between atoms: O4_4  and  C14_19 
REMARK    4  A    between atoms: O5_5  and  C15_20 
REMARK    5  A    between atoms: C1_6  and  C2_7 
REMARK    6  A    between atoms: C1_6  and  C3_8 
REMARK    7  A    between atoms: C2_7  and  C4_9 
REMARK    8  A    between atoms: C4_9  and  C5_10 
ROOT
ATOM      1  C5  UNK     1      49.174  12.796  -5.956  1.00  0.00     0.076 A 
ATOM      2  C8  UNK     1      49.742  14.069  -6.013  1.00  0.00     0.085 A 
ATOM      3  C9  UNK     1      48.123  12.541  -5.075  1.00  0.00     0.085 A 
ATOM      4  C10 UNK     1      49.260  15.086  -5.189  1.00  0.00     0.074 A 
ATOM      5  C11 UNK     1      47.641  13.556  -4.251  1.00  0.00     0.074 A 
ATOM      6  C14 UNK     1      48.209  14.830  -4.308  1.00  0.00     0.071 A 
ENDROOT
BRANCH   1   7
ATOM      7  C4  UNK     1      49.679  11.734  -6.819  1.00  0.00     0.165 C 
ATOM      8  O1  UNK     1      50.691  11.082  -6.498  1.00  0.00    -0.292 OA
BRANCH   7   9
ATOM      9  C2  UNK     1      48.959  11.415  -8.140  1.00  0.00     0.088 C 
BRANCH   9  10
ATOM     10  C1  UNK     1      48.320  10.025  -8.160  1.00  0.00     0.046 C 
BRANCH  10  11
ATOM     11  C3  UNK     1      46.847  10.092  -8.472  1.00  0.00    -0.058 A 
ATOM     12  C6  UNK     1      46.127  11.223  -8.119  1.00  0.00     0.010 A 
ATOM     13  C12 UNK     1      44.763  11.286  -8.408  1.00  0.00     0.037 A 
ATOM     14  C15 UNK     1      44.136  10.215  -9.046  1.00  0.00     0.065 A 
ATOM     15  C13 UNK     1      44.872   9.082  -9.395  1.00  0.00     0.037 A 
ATOM     16  C7  UNK     1      46.235   9.021  -9.106  1.00  0.00     0.010 A 
BRANCH  14  17
ATOM     17  O5  UNK     1      42.807  10.276  -9.328  1.00  0.00    -0.361 OA
ATOM     18  H14 UNK     1      42.459  11.132  -9.026  1.00  0.00     0.217 HD
ENDBRANCH  14  17
ENDBRANCH  10  11
ENDBRANCH   9  10
ENDBRANCH   7   9
ENDBRANCH   1   7
BRANCH   2  19
ATOM     19  O2  UNK     1      50.769  14.341  -6.867  1.00  0.00    -0.360 OA
ATOM     20  H11 UNK     1      51.580  14.544  -6.374  1.00  0.00     0.217 HD
ENDBRANCH   2  19
BRANCH   3  21
ATOM     21  O3  UNK     1      47.554  11.304  -5.004  1.00  0.00    -0.360 OA
ATOM     22  H12 UNK     1      47.005  11.161  -5.795  1.00  0.00     0.217 HD
ENDBRANCH   3  21
BRANCH   6  23
ATOM     23  O4  UNK     1      47.739  15.821  -3.503  1.00  0.00    -0.361 OA
ATOM     24  H13 UNK     1      48.292  15.868  -2.704  1.00  0.00     0.217 HD
ENDBRANCH   6  23
TORSDOF 8
ENDMDL
MODEL 13
REMARK VINA RESULT:      -6.1      9.090     11.613
REMARK  8 active torsions:
REMARK  status: ('A' for Active; 'I' for Inactive)
REMARK    1  A    between atoms: O2_2  and  C8_13 
REMARK    2  A    between atoms: O3_3  and  C9_14 
REMARK    3  A    between atoms: O4_4  and  C14_19 
REMARK    4  A    between atoms: O5_5  and  C15_20 
REMARK    5  A    between atoms: C1_6  and  C2_7 
REMARK    6  A    between atoms: C1_6  and  C3_8 
REMARK    7  A    between atoms: C2_7  and  C4_9 
REMARK    8  A    between atoms: C4_9  and  C5_10 
ROOT
ATOM      1  C5  UNK     1      49.169  12.799  -5.955  1.00  0.00     0.076 A 
ATOM      2  C8  UNK     1      49.731  14.074  -6.010  1.00  0.00     0.085 A 
ATOM      3  C9  UNK     1      48.119  12.537  -5.074  1.00  0.00     0.085 A 
ATOM      4  C10 UNK     1      49.244  15.088  -5.184  1.00  0.00     0.074 A 
ATOM      5  C11 UNK     1      47.632  13.550  -4.249  1.00  0.00     0.074 A 
ATOM      6  C14 UNK     1      48.194  14.826  -4.304  1.00  0.00     0.071 A 
ENDROOT
BRANCH   1   7
ATOM      7  C4  UNK     1      49.679  11.740  -6.819  1.00  0.00     0.165 C 
ATOM      8  O1  UNK     1      50.698  11.098  -6.502  1.00  0.00    -0.292 OA
BRANCH   7   9
ATOM      9  C2  UNK     1      48.955  11.413  -8.136  1.00  0.00     0.088 C 
BRANCH   9  10
ATOM     10  C1  UNK     1      48.312  10.025  -8.144  1.00  0.00     0.046 C 
BRANCH  10  11
ATOM     11  C3  UNK     1      46.842  10.094  -8.466  1.00  0.00    -0.058 A 
ATOM     12  C6  UNK     1      46.235   9.028  -9.113  1.00  0.00     0.010 A 
ATOM     13  C12 UNK     1      44.873   9.092  -9.410  1.00  0.00     0.037 A 
ATOM     14  C15 UNK     1      44.134  10.223  -9.058  1.00  0.00     0.065 A 
ATOM     15  C13 UNK     1      44.758  11.288  -8.408  1.00  0.00     0.037 A 
ATOM     16  C7  UNK     1      46.119  11.223  -8.110  1.00  0.00     0.010 A 
BRANCH  14  17
ATOM     17  O5  UNK     1      42.807  10.284  -9.347  1.00  0.00    -0.361 OA
ATOM     18  H14 UNK     1      42.688  10.190 -10.307  1.00  0.00     0.217 HD
ENDBRANCH  14  17
ENDBRANCH  10  11
ENDBRANCH   9  10
ENDBRANCH   7   9
ENDBRANCH   1   7
BRANCH   2  19
ATOM     19  O2  UNK     1      50.758  14.352  -6.863  1.00  0.00    -0.360 OA
ATOM     20  H11 UNK     1      51.478  13.711  -6.752  1.00  0.00     0.217 HD
ENDBRANCH   2  19
BRANCH   3  21
ATOM     21  O3  UNK     1      47.555  11.298  -5.005  1.00  0.00    -0.360 OA
ATOM     22  H12 UNK     1      48.260  10.629  -4.971  1.00  0.00     0.217 HD
ENDBRANCH   3  21
BRANCH   6  23
ATOM     23  O4  UNK     1      47.719  15.814  -3.498  1.00  0.00    -0.361 OA
ATOM     24  H13 UNK     1      47.772  16.661  -3.973  1.00  0.00     0.217 HD
ENDBRANCH   6  23
TORSDOF 8
ENDMDL
MODEL 14
REMARK VINA RESULT:      -6.0      9.329     11.541
REMARK  8 active torsions:
REMARK  status: ('A' for Active; 'I' for Inactive)
REMARK    1  A    between atoms: O2_2  and  C8_13 
REMARK    2  A    between atoms: O3_3  and  C9_14 
REMARK    3  A    between atoms: O4_4  and  C14_19 
REMARK    4  A    between atoms: O5_5  and  C15_20 
REMARK    5  A    between atoms: C1_6  and  C2_7 
REMARK    6  A    between atoms: C1_6  and  C3_8 
REMARK    7  A    between atoms: C2_7  and  C4_9 
REMARK    8  A    between atoms: C4_9  and  C5_10 
ROOT
ATOM      1  C5  UNK     1      50.590  10.531  -5.670  1.00  0.00     0.076 A 
ATOM      2  C8  UNK     1      51.639  11.363  -5.279  1.00  0.00     0.085 A 
ATOM      3  C9  UNK     1      49.731   9.995  -4.711  1.00  0.00     0.085 A 
ATOM      4  C10 UNK     1      51.828  11.660  -3.929  1.00  0.00     0.074 A 
ATOM      5  C11 UNK     1      49.919  10.292  -3.361  1.00  0.00     0.074 A 
ATOM      6  C14 UNK     1      50.969  11.125  -2.970  1.00  0.00     0.071 A 
ENDROOT
BRANCH   1   7
ATOM      7  C4  UNK     1      50.393  10.221  -7.081  1.00  0.00     0.165 C 
ATOM      8  O1  UNK     1      50.595   9.070  -7.514  1.00  0.00    -0.292 OA
BRANCH   7   9
ATOM      9  C2  UNK     1      49.933  11.325  -8.049  1.00  0.00     0.088 C 
BRANCH   9  10
ATOM     10  C1  UNK     1      48.509  11.814  -7.775  1.00  0.00     0.046 C 
BRANCH  10  11
ATOM     11  C3  UNK     1      48.455  12.732  -6.581  1.00  0.00    -0.058 A 
ATOM     12  C6  UNK     1      49.256  13.863  -6.554  1.00  0.00     0.010 A 
ATOM     13  C12 UNK     1      49.206  14.713  -5.448  1.00  0.00     0.037 A 
ATOM     14  C15 UNK     1      48.356  14.419  -4.381  1.00  0.00     0.065 A 
ATOM     15  C13 UNK     1      47.556  13.276  -4.421  1.00  0.00     0.037 A 
ATOM     16  C7  UNK     1      47.606  12.428  -5.527  1.00  0.00     0.010 A 
BRANCH  14  17
ATOM     17  O5  UNK     1      48.306  15.248  -3.303  1.00  0.00    -0.361 OA
ATOM     18  H14 UNK     1      47.551  15.852  -3.405  1.00  0.00     0.217 HD
ENDBRANCH  14  17
ENDBRANCH  10  11
ENDBRANCH   9  10
ENDBRANCH   7   9
ENDBRANCH   1   7
BRANCH   2  19
ATOM     19  O2  UNK     1      52.490  11.898  -6.200  1.00  0.00    -0.360 OA
ATOM     20  H11 UNK     1      53.213  11.280  -6.397  1.00  0.00     0.217 HD
ENDBRANCH   2  19
BRANCH   3  21
ATOM     21  O3  UNK     1      48.699   9.180  -5.071  1.00  0.00    -0.360 OA
ATOM     22  H12 UNK     1      48.498   9.319  -6.013  1.00  0.00     0.217 HD
ENDBRANCH   3  21
BRANCH   6  23
ATOM     23  O4  UNK     1      51.153  11.413  -1.653  1.00  0.00    -0.361 OA
ATOM     24  H13 UNK     1      50.328  11.780  -1.293  1.00  0.00     0.217 HD
ENDBRANCH   6  23
TORSDOF 8
ENDMDL
MODEL 15
REMARK VINA RESULT:      -6.0      9.327     11.486
REMARK  8 active torsions:
REMARK  status: ('A' for Active; 'I' for Inactive)
REMARK    1  A    between atoms: O2_2  and  C8_13 
REMARK    2  A    between atoms: O3_3  and  C9_14 
REMARK    3  A    between atoms: O4_4  and  C14_19 
REMARK    4  A    between atoms: O5_5  and  C15_20 
REMARK    5  A    between atoms: C1_6  and  C2_7 
REMARK    6  A    between atoms: C1_6  and  C3_8 
REMARK    7  A    between atoms: C2_7  and  C4_9 
REMARK    8  A    between atoms: C4_9  and  C5_10 
ROOT
ATOM      1  C5  UNK     1      50.620  10.533  -5.639  1.00  0.00     0.076 A 
ATOM      2  C8  UNK     1      49.743   9.995  -4.697  1.00  0.00     0.085 A 
ATOM      3  C9  UNK     1      51.662  11.363  -5.227  1.00  0.00     0.085 A 
ATOM      4  C10 UNK     1      49.907  10.288  -3.344  1.00  0.00     0.074 A 
ATOM      5  C11 UNK     1      51.827  11.657  -3.874  1.00  0.00     0.074 A 
ATOM      6  C14 UNK     1      50.949  11.119  -2.931  1.00  0.00     0.071 A 
ENDROOT
BRANCH   1   7
ATOM      7  C4  UNK     1      50.447  10.225  -7.054  1.00  0.00     0.165 C 
ATOM      8  O1  UNK     1      50.682   9.080  -7.489  1.00  0.00    -0.292 OA
BRANCH   7   9
ATOM      9  C2  UNK     1      49.975  11.322  -8.023  1.00  0.00     0.088 C 
BRANCH   9  10
ATOM     10  C1  UNK     1      48.544  11.791  -7.752  1.00  0.00     0.046 C 
BRANCH  10  11
ATOM     11  C3  UNK     1      48.477  12.717  -6.565  1.00  0.00    -0.058 A 
ATOM     12  C6  UNK     1      47.616  12.423  -5.519  1.00  0.00     0.010 A 
ATOM     13  C12 UNK     1      47.554  13.279  -4.419  1.00  0.00     0.037 A 
ATOM     14  C15 UNK     1      48.354  14.423  -4.380  1.00  0.00     0.065 A 
ATOM     15  C13 UNK     1      49.215  14.708  -5.440  1.00  0.00     0.037 A 
ATOM     16  C7  UNK     1      49.277  13.850  -6.539  1.00  0.00     0.010 A 
BRANCH  14  17
ATOM     17  O5  UNK     1      48.295  15.257  -3.308  1.00  0.00    -0.361 OA
ATOM     18  H14 UNK     1      47.483  15.070  -2.806  1.00  0.00     0.217 HD
ENDBRANCH  14  17
ENDBRANCH  10  11
ENDBRANCH   9  10
ENDBRANCH   7   9
ENDBRANCH   1   7
BRANCH   2  19
ATOM     19  O2  UNK     1      48.718   9.181  -5.078  1.00  0.00    -0.360 OA
ATOM     20  H11 UNK     1      48.752   9.011  -6.033  1.00  0.00     0.217 HD
ENDBRANCH   2  19
BRANCH   3  21
ATOM     21  O3  UNK     1      52.531  11.898  -6.131  1.00  0.00    -0.360 OA
ATOM     22  H12 UNK     1      52.552  11.335  -6.924  1.00  0.00     0.217 HD
ENDBRANCH   3  21
BRANCH   6  23
ATOM     23  O4  UNK     1      51.110  11.406  -1.611  1.00  0.00    -0.361 OA
ATOM     24  H13 UNK     1      50.372  11.968  -1.319  1.00  0.00     0.217 HD
ENDBRANCH   6  23
TORSDOF 8
ENDMDL
MODEL 16
REMARK VINA RESULT:      -5.8      9.564     10.879
REMARK  8 active torsions:
REMARK  status: ('A' for Active; 'I' for Inactive)
REMARK    1  A    between atoms: O2_2  and  C8_13 
REMARK    2  A    between atoms: O3_3  and  C9_14 
REMARK    3  A    between atoms: O4_4  and  C14_19 
REMARK    4  A    between atoms: O5_5  and  C15_20 
REMARK    5  A    between atoms: C1_6  and  C2_7 
REMARK    6  A    between atoms: C1_6  and  C3_8 
REMARK    7  A    between atoms: C2_7  and  C4_9 
REMARK    8  A    between atoms: C4_9  and  C5_10 
ROOT
ATOM      1  C5  UNK     1      44.552  10.285  -9.890  1.00  0.00     0.076 A 
ATOM      2  C8  UNK     1      44.607   8.925  -9.586  1.00  0.00     0.085 A 
ATOM      3  C9  UNK     1      43.417  10.818 -10.500  1.00  0.00     0.085 A 
ATOM      4  C10 UNK     1      43.526   8.098  -9.893  1.00  0.00     0.074 A 
ATOM      5  C11 UNK     1      42.336   9.992 -10.807  1.00  0.00     0.074 A 
ATOM      6  C14 UNK     1      42.391   8.631 -10.503  1.00  0.00     0.071 A 
ENDROOT
BRANCH   1   7
ATOM      7  C4  UNK     1      45.682  11.149  -9.568  1.00  0.00     0.165 C 
ATOM      8  O1  UNK     1      46.479  11.510 -10.456  1.00  0.00    -0.292 OA
BRANCH   7   9
ATOM      9  C2  UNK     1      45.898  11.618  -8.119  1.00  0.00     0.088 C 
BRANCH   9  10
ATOM     10  C1  UNK     1      47.303  11.323  -7.591  1.00  0.00     0.046 C 
BRANCH  10  11
ATOM     11  C3  UNK     1      47.680  12.249  -6.463  1.00  0.00    -0.058 A 
ATOM     12  C6  UNK     1      47.498  11.836  -5.152  1.00  0.00     0.010 A 
ATOM     13  C12 UNK     1      47.847  12.693  -4.108  1.00  0.00     0.037 A 
ATOM     14  C15 UNK     1      48.374  13.955  -4.388  1.00  0.00     0.065 A 
ATOM     15  C13 UNK     1      48.552  14.358  -5.711  1.00  0.00     0.037 A 
ATOM     16  C7  UNK     1      48.203  13.501  -6.755  1.00  0.00     0.010 A 
BRANCH  14  17
ATOM     17  O5  UNK     1      48.716  14.790  -3.370  1.00  0.00    -0.361 OA
ATOM     18  H14 UNK     1      48.071  15.516  -3.328  1.00  0.00     0.217 HD
ENDBRANCH  14  17
ENDBRANCH  10  11
ENDBRANCH   9  10
ENDBRANCH   7   9
ENDBRANCH   1   7
BRANCH   2  19
ATOM     19  O2  UNK     1      45.706   8.383  -8.989  1.00  0.00    -0.360 OA
ATOM     20  H11 UNK     1      45.751   7.428  -9.157  1.00  0.00     0.217 HD
ENDBRANCH   2  19
BRANCH   3  21
ATOM     21  O3  UNK     1      43.343  12.145 -10.804  1.00  0.00    -0.360 OA
ATOM     22  H12 UNK     1      43.827  12.653 -10.131  1.00  0.00     0.217 HD
ENDBRANCH   3  21
BRANCH   6  23
ATOM     23  O4  UNK     1      41.337   7.824 -10.803  1.00  0.00    -0.361 OA
ATOM     24  H13 UNK     1      40.526   8.361 -10.825  1.00  0.00     0.217 HD
ENDBRANCH   6  23
TORSDOF 8
ENDMDL
MODEL 17
REMARK VINA RESULT:      -5.8      9.520     10.790
REMARK  8 active torsions:
REMARK  status: ('A' for Active; 'I' for Inactive)
REMARK    1  A    between atoms: O2_2  and  C8_13 
REMARK    2  A    between atoms: O3_3  and  C9_14 
REMARK    3  A    between atoms: O4_4  and  C14_19 
REMARK    4  A    between atoms: O5_5  and  C15_20 
REMARK    5  A    between atoms: C1_6  and  C2_7 
REMARK    6  A    between atoms: C1_6  and  C3_8 
REMARK    7  A    between atoms: C2_7  and  C4_9 
REMARK    8  A    between atoms: C4_9  and  C5_10 
ROOT
ATOM      1  C5  UNK     1      44.563  10.309  -9.852  1.00  0.00     0.076 A 
ATOM      2  C8  UNK     1      43.442  10.841 -10.488  1.00  0.00     0.085 A 
ATOM      3  C9  UNK     1      44.619   8.946  -9.562  1.00  0.00     0.085 A 
ATOM      4  C10 UNK     1      42.376  10.010 -10.833  1.00  0.00     0.074 A 
ATOM      5  C11 UNK     1      43.554   8.115  -9.907  1.00  0.00     0.074 A 
ATOM      6  C14 UNK     1      42.432   8.647 -10.543  1.00  0.00     0.071 A 
ENDROOT
BRANCH   1   7
ATOM      7  C4  UNK     1      45.677  11.179  -9.491  1.00  0.00     0.165 C 
ATOM      8  O1  UNK     1      46.431  11.642 -10.369  1.00  0.00    -0.292 OA
BRANCH   7   9
ATOM      9  C2  UNK     1      45.929  11.527  -8.015  1.00  0.00     0.088 C 
BRANCH   9  10
ATOM     10  C1  UNK     1      47.398  11.398  -7.605  1.00  0.00     0.046 C 
BRANCH  10  11
ATOM     11  C3  UNK     1      47.742  12.324  -6.467  1.00  0.00    -0.058 A 
ATOM     12  C6  UNK     1      47.478  11.931  -5.164  1.00  0.00     0.010 A 
ATOM     13  C12 UNK     1      47.798  12.788  -4.110  1.00  0.00     0.037 A 
ATOM     14  C15 UNK     1      48.375  14.031  -4.373  1.00  0.00     0.065 A 
ATOM     15  C13 UNK     1      48.634  14.415  -5.689  1.00  0.00     0.037 A 
ATOM     16  C7  UNK     1      48.316  13.557  -6.741  1.00  0.00     0.010 A 
BRANCH  14  17
ATOM     17  O5  UNK     1      48.687  14.866  -3.346  1.00  0.00    -0.361 OA
ATOM     18  H14 UNK     1      48.404  14.458  -2.510  1.00  0.00     0.217 HD
ENDBRANCH  14  17
ENDBRANCH  10  11
ENDBRANCH   9  10
ENDBRANCH   7   9
ENDBRANCH   1   7
BRANCH   2  19
ATOM     19  O2  UNK     1      43.366  12.170 -10.780  1.00  0.00    -0.360 OA
ATOM     20  H11 UNK     1      44.097  12.435 -11.361  1.00  0.00     0.217 HD
ENDBRANCH   2  19
BRANCH   3  21
ATOM     21  O3  UNK     1      45.707   8.405  -8.942  1.00  0.00    -0.360 OA
ATOM     22  H12 UNK     1      46.410   8.264  -9.599  1.00  0.00     0.217 HD
ENDBRANCH   3  21
BRANCH   6  23
ATOM     23  O4  UNK     1      41.392   7.836 -10.879  1.00  0.00    -0.361 OA
ATOM     24  H13 UNK     1      40.920   7.577 -10.069  1.00  0.00     0.217 HD
ENDBRANCH   6  23
TORSDOF 8
ENDMDL
MODEL 18
REMARK VINA RESULT:      -5.6      9.884     11.818
REMARK  8 active torsions:
REMARK  status: ('A' for Active; 'I' for Inactive)
REMARK    1  A    between atoms: O2_2  and  C8_13 
REMARK    2  A    between atoms: O3_3  and  C9_14 
REMARK    3  A    between atoms: O4_4  and  C14_19 
REMARK    4  A    between atoms: O5_5  and  C15_20 
REMARK    5  A    between atoms: C1_6  and  C2_7 
REMARK    6  A    between atoms: C1_6  and  C3_8 
REMARK    7  A    between atoms: C2_7  and  C4_9 
REMARK    8  A    between atoms: C4_9  and  C5_10 
ROOT
ATOM      1  C5  UNK     1      49.551  11.727  -4.823  1.00  0.00     0.076 A 
ATOM      2  C8  UNK     1      50.707  12.492  -4.672  1.00  0.00     0.085 A 
ATOM      3  C9  UNK     1      49.631  10.334  -4.817  1.00  0.00     0.085 A 
ATOM      4  C10 UNK     1      51.943  11.865  -4.514  1.00  0.00     0.074 A 
ATOM      5  C11 UNK     1      50.867   9.707  -4.659  1.00  0.00     0.074 A 
ATOM      6  C14 UNK     1      52.024  10.473  -4.507  1.00  0.00     0.071 A 
ENDROOT
BRANCH   1   7
ATOM      7  C4  UNK     1      48.259  12.383  -4.988  1.00  0.00     0.165 C 
ATOM      8  O1  UNK     1      47.426  12.386  -4.061  1.00  0.00    -0.292 OA
BRANCH   7   9
ATOM      9  C2  UNK     1      47.918  13.077  -6.317  1.00  0.00     0.088 C 
BRANCH   9  10
ATOM     10  C1  UNK     1      48.305  12.252  -7.546  1.00  0.00     0.046 C 
BRANCH  10  11
ATOM     11  C3  UNK     1      47.207  11.302  -7.948  1.00  0.00    -0.058 A 
ATOM     12  C6  UNK     1      45.887  11.720  -7.885  1.00  0.00     0.010 A 
ATOM     13  C12 UNK     1      44.870  10.840  -8.257  1.00  0.00     0.037 A 
ATOM     14  C15 UNK     1      45.186   9.551  -8.687  1.00  0.00     0.065 A 
ATOM     15  C13 UNK     1      46.519   9.142  -8.745  1.00  0.00     0.037 A 
ATOM     16  C7  UNK     1      47.535  10.023  -8.374  1.00  0.00     0.010 A 
BRANCH  14  17
ATOM     17  O5  UNK     1      44.195   8.693  -9.051  1.00  0.00    -0.361 OA
ATOM     18  H14 UNK     1      43.336   9.091  -8.828  1.00  0.00     0.217 HD
ENDBRANCH  14  17
ENDBRANCH  10  11
ENDBRANCH   9  10
ENDBRANCH   7   9
ENDBRANCH   1   7
BRANCH   2  19
ATOM     19  O2  UNK     1      50.652  13.854  -4.675  1.00  0.00    -0.360 OA
ATOM     20  H11 UNK     1      50.674  14.200  -3.768  1.00  0.00     0.217 HD
ENDBRANCH   2  19
BRANCH   3  21
ATOM     21  O3  UNK     1      48.513   9.567  -4.963  1.00  0.00    -0.360 OA
ATOM     22  H12 UNK     1      47.903   9.752  -4.228  1.00  0.00     0.217 HD
ENDBRANCH   3  21
BRANCH   6  23
ATOM     23  O4  UNK     1      53.229   9.861  -4.354  1.00  0.00    -0.361 OA
ATOM     24  H13 UNK     1      53.274   9.098  -4.956  1.00  0.00     0.217 HD
ENDBRANCH   6  23
TORSDOF 8
ENDMDL
MODEL 19
REMARK VINA RESULT:      -5.6      9.897     11.788
REMARK  8 active torsions:
REMARK  status: ('A' for Active; 'I' for Inactive)
REMARK    1  A    between atoms: O2_2  and  C8_13 
REMARK    2  A    between atoms: O3_3  and  C9_14 
REMARK    3  A    between atoms: O4_4  and  C14_19 
REMARK    4  A    between atoms: O5_5  and  C15_20 
REMARK    5  A    between atoms: C1_6  and  C2_7 
REMARK    6  A    between atoms: C1_6  and  C3_8 
REMARK    7  A    between atoms: C2_7  and  C4_9 
REMARK    8  A    between atoms: C4_9  and  C5_10 
ROOT
ATOM      1  C5  UNK     1      49.528  11.714  -4.818  1.00  0.00     0.076 A 
ATOM      2  C8  UNK     1      49.622  10.322  -4.816  1.00  0.00     0.085 A 
ATOM      3  C9  UNK     1      50.673  12.490  -4.637  1.00  0.00     0.085 A 
ATOM      4  C10 UNK     1      50.860   9.706  -4.633  1.00  0.00     0.074 A 
ATOM      5  C11 UNK     1      51.911  11.875  -4.454  1.00  0.00     0.074 A 
ATOM      6  C14 UNK     1      52.005  10.482  -4.451  1.00  0.00     0.071 A 
ENDROOT
BRANCH   1   7
ATOM      7  C4  UNK     1      48.233  12.357  -5.011  1.00  0.00     0.165 C 
ATOM      8  O1  UNK     1      47.384  12.361  -4.098  1.00  0.00    -0.292 OA
BRANCH   7   9
ATOM      9  C2  UNK     1      47.908  13.035  -6.353  1.00  0.00     0.088 C 
BRANCH   9  10
ATOM     10  C1  UNK     1      48.302  12.191  -7.567  1.00  0.00     0.046 C 
BRANCH  10  11
ATOM     11  C3  UNK     1      47.195  11.255  -7.978  1.00  0.00    -0.058 A 
ATOM     12  C6  UNK     1      45.882  11.699  -7.953  1.00  0.00     0.010 A 
ATOM     13  C12 UNK     1      44.858  10.832  -8.334  1.00  0.00     0.037 A 
ATOM     14  C15 UNK     1      45.159   9.529  -8.733  1.00  0.00     0.065 A 
ATOM     15  C13 UNK     1      46.484   9.095  -8.753  1.00  0.00     0.037 A 
ATOM     16  C7  UNK     1      47.508   9.962  -8.373  1.00  0.00     0.010 A 
BRANCH  14  17
ATOM     17  O5  UNK     1      44.160   8.684  -9.106  1.00  0.00    -0.361 OA
ATOM     18  H14 UNK     1      43.826   8.223  -8.318  1.00  0.00     0.217 HD
ENDBRANCH  14  17
ENDBRANCH  10  11
ENDBRANCH   9  10
ENDBRANCH   7   9
ENDBRANCH   1   7
BRANCH   2  19
ATOM     19  O2  UNK     1      48.516   9.545  -4.992  1.00  0.00    -0.360 OA
ATOM     20  H11 UNK     1      48.210   9.187  -4.144  1.00  0.00     0.217 HD
ENDBRANCH   2  19
BRANCH   3  21
ATOM     21  O3  UNK     1      50.604  13.851  -4.636  1.00  0.00    -0.360 OA
ATOM     22  H12 UNK     1      49.883  14.133  -5.225  1.00  0.00     0.217 HD
ENDBRANCH   3  21
BRANCH   6  23
ATOM     23  O4  UNK     1      53.213   9.882  -4.272  1.00  0.00    -0.361 OA
ATOM     24  H13 UNK     1      53.069   8.970  -3.964  1.00  0.00     0.217 HD
ENDBRANCH   6  23
TORSDOF 8
ENDMDL
