MODEL 1
REMARK VINA RESULT:      -8.9      0.000      0.000
REMARK  8 active torsions:
REMARK  status: ('A' for Active; 'I' for Inactive)
REMARK    1  A    between atoms: O2_2  and  C8_13 
REMARK    2  A    between atoms: O3_3  and  C9_14 
REMARK    3  A    between atoms: O4_4  and  C14_19 
REMARK    4  A    between atoms: O5_5  and  C15_20 
REMARK    5  A    between atoms: C1_6  and  C2_7 
REMARK    6  A    between atoms: C1_6  and  C3_8 
REMARK    7  A    between atoms: C2_7  and  C4_9 
REMARK    8  A    between atoms: C4_9  and  C5_10 
ROOT
ATOM      1  C5  UNK     1      40.036  14.834  -1.470  1.00  0.00     0.076 A 
ATOM      2  C8  UNK     1      41.231  14.281  -1.009  1.00  0.00     0.085 A 
ATOM      3  C9  UNK     1      38.840  14.133  -1.320  1.00  0.00     0.085 A 
ATOM      4  C10 UNK     1      41.229  13.027  -0.398  1.00  0.00     0.074 A 
ATOM      5  C11 UNK     1      38.837  12.880  -0.709  1.00  0.00     0.074 A 
ATOM      6  C14 UNK     1      40.032  12.326  -0.248  1.00  0.00     0.071 A 
ENDROOT
BRANCH   1   7
ATOM      7  C4  UNK     1      40.039  16.145  -2.108  1.00  0.00     0.165 C 
ATOM      8  O1  UNK     1      40.366  16.269  -3.305  1.00  0.00    -0.292 OA
BRANCH   7   9
ATOM      9  C2  UNK     1      39.639  17.391  -1.299  1.00  0.00     0.088 C 
BRANCH   9  10
ATOM     10  C1  UNK     1      39.647  18.677  -2.127  1.00  0.00     0.046 C 
BRANCH  10  11
ATOM     11  C3  UNK     1      39.589  19.903  -1.252  1.00  0.00    -0.058 A 
ATOM     12  C6  UNK     1      38.795  19.892  -0.115  1.00  0.00     0.010 A 
ATOM     13  C12 UNK     1      38.742  21.027   0.695  1.00  0.00     0.037 A 
ATOM     14  C15 UNK     1      39.482  22.160   0.357  1.00  0.00     0.065 A 
ATOM     15  C13 UNK     1      40.277  22.158  -0.790  1.00  0.00     0.037 A 
ATOM     16  C7  UNK     1      40.330  21.024  -1.599  1.00  0.00     0.010 A 
BRANCH  14  17
ATOM     17  O5  UNK     1      39.431  23.266   1.148  1.00  0.00    -0.361 OA
ATOM     18  H14 UNK     1      39.334  22.988   2.074  1.00  0.00     0.217 HD
ENDBRANCH  14  17
ENDBRANCH  10  11
ENDBRANCH   9  10
ENDBRANCH   7   9
ENDBRANCH   1   7
BRANCH   2  19
ATOM     19  O2  UNK     1      42.411  14.949  -1.145  1.00  0.00    -0.360 OA
ATOM     20  H11 UNK     1      42.297  15.892  -0.946  1.00  0.00     0.217 HD
ENDBRANCH   2  19
BRANCH   3  21
ATOM     21  O3  UNK     1      37.661  14.656  -1.763  1.00  0.00    -0.360 OA
ATOM     22  H12 UNK     1      37.313  15.269  -1.093  1.00  0.00     0.217 HD
ENDBRANCH   3  21
BRANCH   6  23
ATOM     23  O4  UNK     1      40.030  11.102   0.348  1.00  0.00    -0.361 OA
ATOM     24  H13 UNK     1      40.602  11.133   1.134  1.00  0.00     0.217 HD
ENDBRANCH   6  23
TORSDOF 8
ENDMDL
MODEL 2
REMARK VINA RESULT:      -8.9      0.006      1.863
REMARK  8 active torsions:
REMARK  status: ('A' for Active; 'I' for Inactive)
REMARK    1  A    between atoms: O2_2  and  C8_13 
REMARK    2  A    between atoms: O3_3  and  C9_14 
REMARK    3  A    between atoms: O4_4  and  C14_19 
REMARK    4  A    between atoms: O5_5  and  C15_20 
REMARK    5  A    between atoms: C1_6  and  C2_7 
REMARK    6  A    between atoms: C1_6  and  C3_8 
REMARK    7  A    between atoms: C2_7  and  C4_9 
REMARK    8  A    between atoms: C4_9  and  C5_10 
ROOT
ATOM      1  C5  UNK     1      40.038  14.835  -1.469  1.00  0.00     0.076 A 
ATOM      2  C8  UNK     1      38.840  14.135  -1.320  1.00  0.00     0.085 A 
ATOM      3  C9  UNK     1      41.231  14.280  -1.007  1.00  0.00     0.085 A 
ATOM      4  C10 UNK     1      38.835  12.882  -0.709  1.00  0.00     0.074 A 
ATOM      5  C11 UNK     1      41.227  13.026  -0.396  1.00  0.00     0.074 A 
ATOM      6  C14 UNK     1      40.028  12.327  -0.247  1.00  0.00     0.071 A 
ENDROOT
BRANCH   1   7
ATOM      7  C4  UNK     1      40.042  16.145  -2.109  1.00  0.00     0.165 C 
ATOM      8  O1  UNK     1      40.369  16.267  -3.305  1.00  0.00    -0.292 OA
BRANCH   7   9
ATOM      9  C2  UNK     1      39.641  17.392  -1.301  1.00  0.00     0.088 C 
BRANCH   9  10
ATOM     10  C1  UNK     1      39.652  18.678  -2.130  1.00  0.00     0.046 C 
BRANCH  10  11
ATOM     11  C3  UNK     1      39.594  19.904  -1.256  1.00  0.00    -0.058 A 
ATOM     12  C6  UNK     1      38.797  19.895  -0.121  1.00  0.00     0.010 A 
ATOM     13  C12 UNK     1      38.744  21.031   0.688  1.00  0.00     0.037 A 
ATOM     14  C15 UNK     1      39.487  22.163   0.352  1.00  0.00     0.065 A 
ATOM     15  C13 UNK     1      40.284  22.159  -0.793  1.00  0.00     0.037 A 
ATOM     16  C7  UNK     1      40.338  21.023  -1.601  1.00  0.00     0.010 A 
BRANCH  14  17
ATOM     17  O5  UNK     1      39.436  23.269   1.142  1.00  0.00    -0.361 OA
ATOM     18  H14 UNK     1      38.779  23.887   0.777  1.00  0.00     0.217 HD
ENDBRANCH  14  17
ENDBRANCH  10  11
ENDBRANCH   9  10
ENDBRANCH   7   9
ENDBRANCH   1   7
BRANCH   2  19
ATOM     19  O2  UNK     1      37.662  14.659  -1.765  1.00  0.00    -0.360 OA
ATOM     20  H11 UNK     1      37.061  14.830  -1.023  1.00  0.00     0.217 HD
ENDBRANCH   2  19
BRANCH   3  21
ATOM     21  O3  UNK     1      42.413  14.946  -1.143  1.00  0.00    -0.360 OA
ATOM     22  H12 UNK     1      42.714  14.874  -2.065  1.00  0.00     0.217 HD
ENDBRANCH   3  21
BRANCH   6  23
ATOM     23  O4  UNK     1      40.024  11.104   0.350  1.00  0.00    -0.361 OA
ATOM     24  H13 UNK     1      40.023  11.225   1.316  1.00  0.00     0.217 HD
ENDBRANCH   6  23
TORSDOF 8
ENDMDL
MODEL 3
REMARK VINA RESULT:      -8.9      0.010      1.081
REMARK  8 active torsions:
REMARK  status: ('A' for Active; 'I' for Inactive)
REMARK    1  A    between atoms: O2_2  and  C8_13 
REMARK    2  A    between atoms: O3_3  and  C9_14 
REMARK    3  A    between atoms: O4_4  and  C14_19 
REMARK    4  A    between atoms: O5_5  and  C15_20 
REMARK    5  A    between atoms: C1_6  and  C2_7 
REMARK    6  A    between atoms: C1_6  and  C3_8 
REMARK    7  A    between atoms: C2_7  and  C4_9 
REMARK    8  A    between atoms: C4_9  and  C5_10 
ROOT
ATOM      1  C5  UNK     1      40.038  14.835  -1.472  1.00  0.00     0.076 A 
ATOM      2  C8  UNK     1      41.232  14.285  -1.007  1.00  0.00     0.085 A 
ATOM      3  C9  UNK     1      38.842  14.133  -1.323  1.00  0.00     0.085 A 
ATOM      4  C10 UNK     1      41.231  13.032  -0.394  1.00  0.00     0.074 A 
ATOM      5  C11 UNK     1      38.840  12.881  -0.709  1.00  0.00     0.074 A 
ATOM      6  C14 UNK     1      40.035  12.330  -0.244  1.00  0.00     0.071 A 
ENDROOT
BRANCH   1   7
ATOM      7  C4  UNK     1      40.041  16.145  -2.113  1.00  0.00     0.165 C 
ATOM      8  O1  UNK     1      40.370  16.267  -3.308  1.00  0.00    -0.292 OA
BRANCH   7   9
ATOM      9  C2  UNK     1      39.636  17.392  -1.307  1.00  0.00     0.088 C 
BRANCH   9  10
ATOM     10  C1  UNK     1      39.645  18.677  -2.137  1.00  0.00     0.046 C 
BRANCH  10  11
ATOM     11  C3  UNK     1      39.588  19.904  -1.264  1.00  0.00    -0.058 A 
ATOM     12  C6  UNK     1      40.331  21.022  -1.610  1.00  0.00     0.010 A 
ATOM     13  C12 UNK     1      40.278  22.158  -0.802  1.00  0.00     0.037 A 
ATOM     14  C15 UNK     1      39.482  22.162   0.344  1.00  0.00     0.065 A 
ATOM     15  C13 UNK     1      38.739  21.030   0.681  1.00  0.00     0.037 A 
ATOM     16  C7  UNK     1      38.792  19.895  -0.127  1.00  0.00     0.010 A 
BRANCH  14  17
ATOM     17  O5  UNK     1      39.428  23.270   1.131  1.00  0.00    -0.361 OA
ATOM     18  H14 UNK     1      39.017  23.994   0.630  1.00  0.00     0.217 HD
ENDBRANCH  14  17
ENDBRANCH  10  11
ENDBRANCH   9  10
ENDBRANCH   7   9
ENDBRANCH   1   7
BRANCH   2  19
ATOM     19  O2  UNK     1      42.412  14.954  -1.142  1.00  0.00    -0.360 OA
ATOM     20  H11 UNK     1      42.739  14.891  -2.054  1.00  0.00     0.217 HD
ENDBRANCH   2  19
BRANCH   3  21
ATOM     21  O3  UNK     1      37.664  14.654  -1.769  1.00  0.00    -0.360 OA
ATOM     22  H12 UNK     1      37.392  15.378  -1.179  1.00  0.00     0.217 HD
ENDBRANCH   3  21
BRANCH   6  23
ATOM     23  O4  UNK     1      40.033  11.107   0.353  1.00  0.00    -0.361 OA
ATOM     24  H13 UNK     1      40.856  10.643   0.124  1.00  0.00     0.217 HD
ENDBRANCH   6  23
TORSDOF 8
ENDMDL
MODEL 4
REMARK VINA RESULT:      -8.9      0.010      2.154
REMARK  8 active torsions:
REMARK  status: ('A' for Active; 'I' for Inactive)
REMARK    1  A    between atoms: O2_2  and  C8_13 
REMARK    2  A    between atoms: O3_3  and  C9_14 
REMARK    3  A    between atoms: O4_4  and  C14_19 
REMARK    4  A    between atoms: O5_5  and  C15_20 
REMARK    5  A    between atoms: C1_6  and  C2_7 
REMARK    6  A    between atoms: C1_6  and  C3_8 
REMARK    7  A    between atoms: C2_7  and  C4_9 
REMARK    8  A    between atoms: C4_9  and  C5_10 
ROOT
ATOM      1  C5  UNK     1      40.038  14.835  -1.470  1.00  0.00     0.076 A 
ATOM      2  C8  UNK     1      38.841  14.133  -1.320  1.00  0.00     0.085 A 
ATOM      3  C9  UNK     1      41.232  14.283  -1.007  1.00  0.00     0.085 A 
ATOM      4  C10 UNK     1      38.839  12.881  -0.707  1.00  0.00     0.074 A 
ATOM      5  C11 UNK     1      41.230  13.030  -0.394  1.00  0.00     0.074 A 
ATOM      6  C14 UNK     1      40.033  12.329  -0.244  1.00  0.00     0.071 A 
ENDROOT
BRANCH   1   7
ATOM      7  C4  UNK     1      40.039  16.145  -2.112  1.00  0.00     0.165 C 
ATOM      8  O1  UNK     1      40.366  16.265  -3.308  1.00  0.00    -0.292 OA
BRANCH   7   9
ATOM      9  C2  UNK     1      39.636  17.391  -1.306  1.00  0.00     0.088 C 
BRANCH   9  10
ATOM     10  C1  UNK     1      39.645  18.676  -2.137  1.00  0.00     0.046 C 
BRANCH  10  11
ATOM     11  C3  UNK     1      39.587  19.904  -1.264  1.00  0.00    -0.058 A 
ATOM     12  C6  UNK     1      40.329  21.022  -1.612  1.00  0.00     0.010 A 
ATOM     13  C12 UNK     1      40.275  22.159  -0.804  1.00  0.00     0.037 A 
ATOM     14  C15 UNK     1      39.481  22.163   0.343  1.00  0.00     0.065 A 
ATOM     15  C13 UNK     1      38.740  21.030   0.682  1.00  0.00     0.037 A 
ATOM     16  C7  UNK     1      38.793  19.895  -0.126  1.00  0.00     0.010 A 
BRANCH  14  17
ATOM     17  O5  UNK     1      39.427  23.271   1.130  1.00  0.00    -0.361 OA
ATOM     18  H14 UNK     1      38.499  23.540   1.233  1.00  0.00     0.217 HD
ENDBRANCH  14  17
ENDBRANCH  10  11
ENDBRANCH   9  10
ENDBRANCH   7   9
ENDBRANCH   1   7
BRANCH   2  19
ATOM     19  O2  UNK     1      37.663  14.654  -1.766  1.00  0.00    -0.360 OA
ATOM     20  H11 UNK     1      37.054  14.808  -1.026  1.00  0.00     0.217 HD
ENDBRANCH   2  19
BRANCH   3  21
ATOM     21  O3  UNK     1      42.412  14.951  -1.144  1.00  0.00    -0.360 OA
ATOM     22  H12 UNK     1      42.414  15.720  -0.548  1.00  0.00     0.217 HD
ENDBRANCH   3  21
BRANCH   6  23
ATOM     23  O4  UNK     1      40.031  11.107   0.355  1.00  0.00    -0.361 OA
ATOM     24  H13 UNK     1      39.111  10.816   0.475  1.00  0.00     0.217 HD
ENDBRANCH   6  23
TORSDOF 8
ENDMDL
MODEL 5
REMARK VINA RESULT:      -8.4      0.949      1.571
REMARK  8 active torsions:
REMARK  status: ('A' for Active; 'I' for Inactive)
REMARK    1  A    between atoms: O2_2  and  C8_13 
REMARK    2  A    between atoms: O3_3  and  C9_14 
REMARK    3  A    between atoms: O4_4  and  C14_19 
REMARK    4  A    between atoms: O5_5  and  C15_20 
REMARK    5  A    between atoms: C1_6  and  C2_7 
REMARK    6  A    between atoms: C1_6  and  C3_8 
REMARK    7  A    between atoms: C2_7  and  C4_9 
REMARK    8  A    between atoms: C4_9  and  C5_10 
ROOT
ATOM      1  C5  UNK     1      40.175  14.270  -1.556  1.00  0.00     0.076 A 
ATOM      2  C8  UNK     1      41.487  14.180  -1.090  1.00  0.00     0.085 A 
ATOM      3  C9  UNK     1      39.210  13.374  -1.096  1.00  0.00     0.085 A 
ATOM      4  C10 UNK     1      41.834  13.195  -0.166  1.00  0.00     0.074 A 
ATOM      5  C11 UNK     1      39.556  12.389  -0.171  1.00  0.00     0.074 A 
ATOM      6  C14 UNK     1      40.868  12.299   0.294  1.00  0.00     0.071 A 
ENDROOT
BRANCH   1   7
ATOM      7  C4  UNK     1      39.814  15.300  -2.522  1.00  0.00     0.165 C 
ATOM      8  O1  UNK     1      39.413  14.991  -3.661  1.00  0.00    -0.292 OA
BRANCH   7   9
ATOM      9  C2  UNK     1      39.930  16.785  -2.137  1.00  0.00     0.088 C 
BRANCH   9  10
ATOM     10  C1  UNK     1      39.178  17.136  -0.851  1.00  0.00     0.046 C 
BRANCH  10  11
ATOM     11  C3  UNK     1      39.151  18.623  -0.610  1.00  0.00    -0.058 A 
ATOM     12  C6  UNK     1      39.807  19.469  -1.491  1.00  0.00     0.010 A 
ATOM     13  C12 UNK     1      39.782  20.846  -1.268  1.00  0.00     0.037 A 
ATOM     14  C15 UNK     1      39.102  21.361  -0.164  1.00  0.00     0.065 A 
ATOM     15  C13 UNK     1      38.446  20.499   0.715  1.00  0.00     0.037 A 
ATOM     16  C7  UNK     1      38.471  19.123   0.491  1.00  0.00     0.010 A 
BRANCH  14  17
ATOM     17  O5  UNK     1      39.076  22.704   0.053  1.00  0.00    -0.361 OA
ATOM     18  H14 UNK     1      38.381  23.099  -0.500  1.00  0.00     0.217 HD
ENDBRANCH  14  17
ENDBRANCH  10  11
ENDBRANCH   9  10
ENDBRANCH   7   9
ENDBRANCH   1   7
BRANCH   2  19
ATOM     19  O2  UNK     1      42.446  15.045  -1.526  1.00  0.00    -0.360 OA
ATOM     20  H11 UNK     1      42.152  15.507  -2.327  1.00  0.00     0.217 HD
ENDBRANCH   2  19
BRANCH   3  21
ATOM     21  O3  UNK     1      37.922  13.445  -1.537  1.00  0.00    -0.360 OA
ATOM     22  H12 UNK     1      37.326  13.506  -0.771  1.00  0.00     0.217 HD
ENDBRANCH   3  21
BRANCH   6  23
ATOM     23  O4  UNK     1      41.206  11.338   1.196  1.00  0.00    -0.361 OA
ATOM     24  H13 UNK     1      40.943  11.633   2.084  1.00  0.00     0.217 HD
ENDBRANCH   6  23
TORSDOF 8
ENDMDL
MODEL 6
REMARK VINA RESULT:      -8.4      0.945      1.172
REMARK  8 active torsions:
REMARK  status: ('A' for Active; 'I' for Inactive)
REMARK    1  A    between atoms: O2_2  and  C8_13 
REMARK    2  A    between atoms: O3_3  and  C9_14 
REMARK    3  A    between atoms: O4_4  and  C14_19 
REMARK    4  A    between atoms: O5_5  and  C15_20 
REMARK    5  A    between atoms: C1_6  and  C2_7 
REMARK    6  A    between atoms: C1_6  and  C3_8 
REMARK    7  A    between atoms: C2_7  and  C4_9 
REMARK    8  A    between atoms: C4_9  and  C5_10 
ROOT
ATOM      1  C5  UNK     1      40.166  14.282  -1.568  1.00  0.00     0.076 A 
ATOM      2  C8  UNK     1      41.486  14.184  -1.129  1.00  0.00     0.085 A 
ATOM      3  C9  UNK     1      39.203  13.397  -1.082  1.00  0.00     0.085 A 
ATOM      4  C10 UNK     1      41.844  13.202  -0.206  1.00  0.00     0.074 A 
ATOM      5  C11 UNK     1      39.560  12.415  -0.159  1.00  0.00     0.074 A 
ATOM      6  C14 UNK     1      40.882  12.317   0.280  1.00  0.00     0.071 A 
ENDROOT
BRANCH   1   7
ATOM      7  C4  UNK     1      39.793  15.310  -2.533  1.00  0.00     0.165 C 
ATOM      8  O1  UNK     1      39.370  14.996  -3.663  1.00  0.00    -0.292 OA
BRANCH   7   9
ATOM      9  C2  UNK     1      39.924  16.795  -2.157  1.00  0.00     0.088 C 
BRANCH   9  10
ATOM     10  C1  UNK     1      39.196  17.157  -0.861  1.00  0.00     0.046 C 
BRANCH  10  11
ATOM     11  C3  UNK     1      39.174  18.646  -0.631  1.00  0.00    -0.058 A 
ATOM     12  C6  UNK     1      38.483  19.158   0.456  1.00  0.00     0.010 A 
ATOM     13  C12 UNK     1      38.463  20.537   0.669  1.00  0.00     0.037 A 
ATOM     14  C15 UNK     1      39.133  21.388  -0.211  1.00  0.00     0.065 A 
ATOM     15  C13 UNK     1      39.824  20.860  -1.302  1.00  0.00     0.037 A 
ATOM     16  C7  UNK     1      39.845  19.482  -1.513  1.00  0.00     0.010 A 
BRANCH  14  17
ATOM     17  O5  UNK     1      39.115  22.732  -0.003  1.00  0.00    -0.361 OA
ATOM     18  H14 UNK     1      39.363  23.183  -0.828  1.00  0.00     0.217 HD
ENDBRANCH  14  17
ENDBRANCH  10  11
ENDBRANCH   9  10
ENDBRANCH   7   9
ENDBRANCH   1   7
BRANCH   2  19
ATOM     19  O2  UNK     1      42.443  15.039  -1.591  1.00  0.00    -0.360 OA
ATOM     20  H11 UNK     1      42.709  14.801  -2.493  1.00  0.00     0.217 HD
ENDBRANCH   2  19
BRANCH   3  21
ATOM     21  O3  UNK     1      37.907  13.476  -1.497  1.00  0.00    -0.360 OA
ATOM     22  H12 UNK     1      37.888  13.702  -2.443  1.00  0.00     0.217 HD
ENDBRANCH   3  21
BRANCH   6  23
ATOM     23  O4  UNK     1      41.230  11.358   1.180  1.00  0.00    -0.361 OA
ATOM     24  H13 UNK     1      40.509  11.255   1.825  1.00  0.00     0.217 HD
ENDBRANCH   6  23
TORSDOF 8
ENDMDL
MODEL 7
REMARK VINA RESULT:      -8.4      0.946      2.400
REMARK  8 active torsions:
REMARK  status: ('A' for Active; 'I' for Inactive)
REMARK    1  A    between atoms: O2_2  and  C8_13 
REMARK    2  A    between atoms: O3_3  and  C9_14 
REMARK    3  A    between atoms: O4_4  and  C14_19 
REMARK    4  A    between atoms: O5_5  and  C15_20 
REMARK    5  A    between atoms: C1_6  and  C2_7 
REMARK    6  A    between atoms: C1_6  and  C3_8 
REMARK    7  A    between atoms: C2_7  and  C4_9 
REMARK    8  A    between atoms: C4_9  and  C5_10 
ROOT
ATOM      1  C5  UNK     1      40.174  14.281  -1.567  1.00  0.00     0.076 A 
ATOM      2  C8  UNK     1      39.210  13.394  -1.087  1.00  0.00     0.085 A 
ATOM      3  C9  UNK     1      41.492  14.185  -1.122  1.00  0.00     0.085 A 
ATOM      4  C10 UNK     1      39.564  12.413  -0.161  1.00  0.00     0.074 A 
ATOM      5  C11 UNK     1      41.847  13.204  -0.197  1.00  0.00     0.074 A 
ATOM      6  C14 UNK     1      40.883  12.317   0.284  1.00  0.00     0.071 A 
ENDROOT
BRANCH   1   7
ATOM      7  C4  UNK     1      39.803  15.306  -2.535  1.00  0.00     0.165 C 
ATOM      8  O1  UNK     1      39.380  14.990  -3.664  1.00  0.00    -0.292 OA
BRANCH   7   9
ATOM      9  C2  UNK     1      39.935  16.793  -2.163  1.00  0.00     0.088 C 
BRANCH   9  10
ATOM     10  C1  UNK     1      39.211  17.158  -0.866  1.00  0.00     0.046 C 
BRANCH  10  11
ATOM     11  C3  UNK     1      39.185  18.648  -0.642  1.00  0.00    -0.058 A 
ATOM     12  C6  UNK     1      39.853  19.481  -1.527  1.00  0.00     0.010 A 
ATOM     13  C12 UNK     1      39.829  20.861  -1.320  1.00  0.00     0.037 A 
ATOM     14  C15 UNK     1      39.139  21.391  -0.229  1.00  0.00     0.065 A 
ATOM     15  C13 UNK     1      38.472  20.541   0.654  1.00  0.00     0.037 A 
ATOM     16  C7  UNK     1      38.496  19.162   0.446  1.00  0.00     0.010 A 
BRANCH  14  17
ATOM     17  O5  UNK     1      39.115  22.736  -0.028  1.00  0.00    -0.361 OA
ATOM     18  H14 UNK     1      38.784  23.170  -0.833  1.00  0.00     0.217 HD
ENDBRANCH  14  17
ENDBRANCH  10  11
ENDBRANCH   9  10
ENDBRANCH   7   9
ENDBRANCH   1   7
BRANCH   2  19
ATOM     19  O2  UNK     1      37.916  13.469  -1.509  1.00  0.00    -0.360 OA
ATOM     20  H11 UNK     1      37.466  12.618  -1.387  1.00  0.00     0.217 HD
ENDBRANCH   2  19
BRANCH   3  21
ATOM     21  O3  UNK     1      42.450  15.041  -1.579  1.00  0.00    -0.360 OA
ATOM     22  H12 UNK     1      42.301  15.209  -2.525  1.00  0.00     0.217 HD
ENDBRANCH   3  21
BRANCH   6  23
ATOM     23  O4  UNK     1      41.229  11.360   1.187  1.00  0.00    -0.361 OA
ATOM     24  H13 UNK     1      40.473  11.195   1.776  1.00  0.00     0.217 HD
ENDBRANCH   6  23
TORSDOF 8
ENDMDL
MODEL 8
REMARK VINA RESULT:      -8.2      1.682      2.985
REMARK  8 active torsions:
REMARK  status: ('A' for Active; 'I' for Inactive)
REMARK    1  A    between atoms: O2_2  and  C8_13 
REMARK    2  A    between atoms: O3_3  and  C9_14 
REMARK    3  A    between atoms: O4_4  and  C14_19 
REMARK    4  A    between atoms: O5_5  and  C15_20 
REMARK    5  A    between atoms: C1_6  and  C2_7 
REMARK    6  A    between atoms: C1_6  and  C3_8 
REMARK    7  A    between atoms: C2_7  and  C4_9 
REMARK    8  A    between atoms: C4_9  and  C5_10 
ROOT
ATOM      1  C5  UNK     1      40.208  13.202  -1.467  1.00  0.00     0.076 A 
ATOM      2  C8  UNK     1      39.146  12.885  -0.620  1.00  0.00     0.085 A 
ATOM      3  C9  UNK     1      41.381  12.448  -1.426  1.00  0.00     0.085 A 
ATOM      4  C10 UNK     1      39.258  11.817   0.269  1.00  0.00     0.074 A 
ATOM      5  C11 UNK     1      41.493  11.379  -0.537  1.00  0.00     0.074 A 
ATOM      6  C14 UNK     1      40.431  11.063   0.311  1.00  0.00     0.071 A 
ENDROOT
BRANCH   1   7
ATOM      7  C4  UNK     1      40.090  14.319  -2.397  1.00  0.00     0.165 C 
ATOM      8  O1  UNK     1      39.261  14.287  -3.326  1.00  0.00    -0.292 OA
BRANCH   7   9
ATOM      9  C2  UNK     1      40.999  15.549  -2.233  1.00  0.00     0.088 C 
BRANCH   9  10
ATOM     10  C1  UNK     1      40.417  16.818  -2.859  1.00  0.00     0.046 C 
BRANCH  10  11
ATOM     11  C3  UNK     1      39.798  17.718  -1.820  1.00  0.00    -0.058 A 
ATOM     12  C6  UNK     1      39.828  19.092  -2.003  1.00  0.00     0.010 A 
ATOM     13  C12 UNK     1      39.255  19.925  -1.041  1.00  0.00     0.037 A 
ATOM     14  C15 UNK     1      38.659  19.372   0.094  1.00  0.00     0.065 A 
ATOM     15  C13 UNK     1      38.637  17.988   0.266  1.00  0.00     0.037 A 
ATOM     16  C7  UNK     1      39.209  17.156  -0.696  1.00  0.00     0.010 A 
BRANCH  14  17
ATOM     17  O5  UNK     1      38.099  20.184   1.031  1.00  0.00    -0.361 OA
ATOM     18  H14 UNK     1      38.743  20.334   1.744  1.00  0.00     0.217 HD
ENDBRANCH  14  17
ENDBRANCH  10  11
ENDBRANCH   9  10
ENDBRANCH   7   9
ENDBRANCH   1   7
BRANCH   2  19
ATOM     19  O2  UNK     1      37.991  13.608  -0.644  1.00  0.00    -0.360 OA
ATOM     20  H11 UNK     1      37.868  14.029  -1.510  1.00  0.00     0.217 HD
ENDBRANCH   2  19
BRANCH   3  21
ATOM     21  O3  UNK     1      42.431  12.740  -2.246  1.00  0.00    -0.360 OA
ATOM     22  H12 UNK     1      43.219  12.914  -1.704  1.00  0.00     0.217 HD
ENDBRANCH   3  21
BRANCH   6  23
ATOM     23  O4  UNK     1      40.540  10.021   1.178  1.00  0.00    -0.361 OA
ATOM     24  H13 UNK     1      40.539  10.366   2.088  1.00  0.00     0.217 HD
ENDBRANCH   6  23
TORSDOF 8
ENDMDL
MODEL 9
REMARK VINA RESULT:      -8.1      1.666      2.416
REMARK  8 active torsions:
REMARK  status: ('A' for Active; 'I' for Inactive)
REMARK    1  A    between atoms: O2_2  and  C8_13 
REMARK    2  A    between atoms: O3_3  and  C9_14 
REMARK    3  A    between atoms: O4_4  and  C14_19 
REMARK    4  A    between atoms: O5_5  and  C15_20 
REMARK    5  A    between atoms: C1_6  and  C2_7 
REMARK    6  A    between atoms: C1_6  and  C3_8 
REMARK    7  A    between atoms: C2_7  and  C4_9 
REMARK    8  A    between atoms: C4_9  and  C5_10 
ROOT
ATOM      1  C5  UNK     1      40.193  13.216  -1.483  1.00  0.00     0.076 A 
ATOM      2  C8  UNK     1      41.362  12.456  -1.443  1.00  0.00     0.085 A 
ATOM      3  C9  UNK     1      39.133  12.908  -0.630  1.00  0.00     0.085 A 
ATOM      4  C10 UNK     1      41.471  11.388  -0.552  1.00  0.00     0.074 A 
ATOM      5  C11 UNK     1      39.241  11.841   0.262  1.00  0.00     0.074 A 
ATOM      6  C14 UNK     1      40.411  11.081   0.300  1.00  0.00     0.071 A 
ENDROOT
BRANCH   1   7
ATOM      7  C4  UNK     1      40.081  14.332  -2.415  1.00  0.00     0.165 C 
ATOM      8  O1  UNK     1      39.253  14.301  -3.346  1.00  0.00    -0.292 OA
BRANCH   7   9
ATOM      9  C2  UNK     1      40.993  15.559  -2.251  1.00  0.00     0.088 C 
BRANCH   9  10
ATOM     10  C1  UNK     1      40.415  16.830  -2.879  1.00  0.00     0.046 C 
BRANCH  10  11
ATOM     11  C3  UNK     1      39.807  17.737  -1.840  1.00  0.00    -0.058 A 
ATOM     12  C6  UNK     1      39.865  19.111  -2.018  1.00  0.00     0.010 A 
ATOM     13  C12 UNK     1      39.302  19.952  -1.057  1.00  0.00     0.037 A 
ATOM     14  C15 UNK     1      38.690  19.407   0.073  1.00  0.00     0.065 A 
ATOM     15  C13 UNK     1      38.640  18.023   0.240  1.00  0.00     0.037 A 
ATOM     16  C7  UNK     1      39.201  17.184  -0.722  1.00  0.00     0.010 A 
BRANCH  14  17
ATOM     17  O5  UNK     1      38.140  20.227   1.009  1.00  0.00    -0.361 OA
ATOM     18  H14 UNK     1      38.393  21.145   0.813  1.00  0.00     0.217 HD
ENDBRANCH  14  17
ENDBRANCH  10  11
ENDBRANCH   9  10
ENDBRANCH   7   9
ENDBRANCH   1   7
BRANCH   2  19
ATOM     19  O2  UNK     1      42.410  12.739  -2.268  1.00  0.00    -0.360 OA
ATOM     20  H11 UNK     1      42.968  13.436  -1.886  1.00  0.00     0.217 HD
ENDBRANCH   2  19
BRANCH   3  21
ATOM     21  O3  UNK     1      37.982  13.639  -0.651  1.00  0.00    -0.360 OA
ATOM     22  H12 UNK     1      37.463  13.437   0.146  1.00  0.00     0.217 HD
ENDBRANCH   3  21
BRANCH   6  23
ATOM     23  O4  UNK     1      40.516  10.039   1.170  1.00  0.00    -0.361 OA
ATOM     24  H13 UNK     1      39.834   9.380   0.955  1.00  0.00     0.217 HD
ENDBRANCH   6  23
TORSDOF 8
ENDMDL
MODEL 10
REMARK VINA RESULT:      -8.1      2.115      7.126
REMARK  8 active torsions:
REMARK  status: ('A' for Active; 'I' for Inactive)
REMARK    1  A    between atoms: O2_2  and  C8_13 
REMARK    2  A    between atoms: O3_3  and  C9_14 
REMARK    3  A    between atoms: O4_4  and  C14_19 
REMARK    4  A    between atoms: O5_5  and  C15_20 
REMARK    5  A    between atoms: C1_6  and  C2_7 
REMARK    6  A    between atoms: C1_6  and  C3_8 
REMARK    7  A    between atoms: C2_7  and  C4_9 
REMARK    8  A    between atoms: C4_9  and  C5_10 
ROOT
ATOM      1  C5  UNK     1      39.778  16.692  -2.119  1.00  0.00     0.076 A 
ATOM      2  C8  UNK     1      39.038  16.755  -0.938  1.00  0.00     0.085 A 
ATOM      3  C9  UNK     1      40.163  17.867  -2.764  1.00  0.00     0.085 A 
ATOM      4  C10 UNK     1      38.683  17.993  -0.403  1.00  0.00     0.074 A 
ATOM      5  C11 UNK     1      39.808  19.105  -2.230  1.00  0.00     0.074 A 
ATOM      6  C14 UNK     1      39.068  19.168  -1.049  1.00  0.00     0.071 A 
ENDROOT
BRANCH   1   7
ATOM      7  C4  UNK     1      40.150  15.396  -2.677  1.00  0.00     0.165 C 
ATOM      8  O1  UNK     1      39.308  14.697  -3.274  1.00  0.00    -0.292 OA
BRANCH   7   9
ATOM      9  C2  UNK     1      41.592  14.884  -2.526  1.00  0.00     0.088 C 
BRANCH   9  10
ATOM     10  C1  UNK     1      42.020  14.705  -1.068  1.00  0.00     0.046 C 
BRANCH  10  11
ATOM     11  C3  UNK     1      41.559  13.383  -0.510  1.00  0.00    -0.058 A 
ATOM     12  C6  UNK     1      41.014  13.334   0.764  1.00  0.00     0.010 A 
ATOM     13  C12 UNK     1      40.586  12.110   1.281  1.00  0.00     0.037 A 
ATOM     14  C15 UNK     1      40.710  10.949   0.516  1.00  0.00     0.065 A 
ATOM     15  C13 UNK     1      41.261  11.013  -0.764  1.00  0.00     0.037 A 
ATOM     16  C7  UNK     1      41.687  12.236  -1.280  1.00  0.00     0.010 A 
BRANCH  14  17
ATOM     17  O5  UNK     1      40.292   9.757   1.019  1.00  0.00    -0.361 OA
ATOM     18  H14 UNK     1      41.008   9.370   1.551  1.00  0.00     0.217 HD
ENDBRANCH  14  17
ENDBRANCH  10  11
ENDBRANCH   9  10
ENDBRANCH   7   9
ENDBRANCH   1   7
BRANCH   2  19
ATOM     19  O2  UNK     1      38.652  15.619  -0.290  1.00  0.00    -0.360 OA
ATOM     20  H11 UNK     1      38.240  14.995  -0.909  1.00  0.00     0.217 HD
ENDBRANCH   2  19
BRANCH   3  21
ATOM     21  O3  UNK     1      40.887  17.827  -3.919  1.00  0.00    -0.360 OA
ATOM     22  H12 UNK     1      41.828  17.958  -3.709  1.00  0.00     0.217 HD
ENDBRANCH   3  21
BRANCH   6  23
ATOM     23  O4  UNK     1      38.721  20.377  -0.528  1.00  0.00    -0.361 OA
ATOM     24  H13 UNK     1      37.932  20.705  -0.993  1.00  0.00     0.217 HD
ENDBRANCH   6  23
TORSDOF 8
ENDMDL
MODEL 11
REMARK VINA RESULT:      -8.0      2.120      7.135
REMARK  8 active torsions:
REMARK  status: ('A' for Active; 'I' for Inactive)
REMARK    1  A    between atoms: O2_2  and  C8_13 
REMARK    2  A    between atoms: O3_3  and  C9_14 
REMARK    3  A    between atoms: O4_4  and  C14_19 
REMARK    4  A    between atoms: O5_5  and  C15_20 
REMARK    5  A    between atoms: C1_6  and  C2_7 
REMARK    6  A    between atoms: C1_6  and  C3_8 
REMARK    7  A    between atoms: C2_7  and  C4_9 
REMARK    8  A    between atoms: C4_9  and  C5_10 
ROOT
ATOM      1  C5  UNK     1      39.720  16.702  -2.077  1.00  0.00     0.076 A 
ATOM      2  C8  UNK     1      38.957  16.710  -0.910  1.00  0.00     0.085 A 
ATOM      3  C9  UNK     1      40.110  17.907  -2.662  1.00  0.00     0.085 A 
ATOM      4  C10 UNK     1      38.584  17.921  -0.328  1.00  0.00     0.074 A 
ATOM      5  C11 UNK     1      39.738  19.118  -2.081  1.00  0.00     0.074 A 
ATOM      6  C14 UNK     1      38.974  19.125  -0.913  1.00  0.00     0.071 A 
ENDROOT
BRANCH   1   7
ATOM      7  C4  UNK     1      40.110  15.435  -2.685  1.00  0.00     0.165 C 
ATOM      8  O1  UNK     1      39.280  14.749  -3.311  1.00  0.00    -0.292 OA
BRANCH   7   9
ATOM      9  C2  UNK     1      41.559  14.937  -2.551  1.00  0.00     0.088 C 
BRANCH   9  10
ATOM     10  C1  UNK     1      42.005  14.758  -1.098  1.00  0.00     0.046 C 
BRANCH  10  11
ATOM     11  C3  UNK     1      41.558  13.431  -0.538  1.00  0.00    -0.058 A 
ATOM     12  C6  UNK     1      41.668  12.291  -1.318  1.00  0.00     0.010 A 
ATOM     13  C12 UNK     1      41.255  11.063  -0.799  1.00  0.00     0.037 A 
ATOM     14  C15 UNK     1      40.735  10.991   0.494  1.00  0.00     0.065 A 
ATOM     15  C13 UNK     1      40.630  12.147   1.268  1.00  0.00     0.037 A 
ATOM     16  C7  UNK     1      41.044  13.374   0.749  1.00  0.00     0.010 A 
BRANCH  14  17
ATOM     17  O5  UNK     1      40.334   9.794   1.000  1.00  0.00    -0.361 OA
ATOM     18  H14 UNK     1      41.018   9.128   0.815  1.00  0.00     0.217 HD
ENDBRANCH  14  17
ENDBRANCH  10  11
ENDBRANCH   9  10
ENDBRANCH   7   9
ENDBRANCH   1   7
BRANCH   2  19
ATOM     19  O2  UNK     1      38.565  15.544  -0.321  1.00  0.00    -0.360 OA
ATOM     20  H11 UNK     1      37.788  15.689   0.242  1.00  0.00     0.217 HD
ENDBRANCH   2  19
BRANCH   3  21
ATOM     21  O3  UNK     1      40.857  17.922  -3.803  1.00  0.00    -0.360 OA
ATOM     22  H12 UNK     1      41.797  17.828  -3.570  1.00  0.00     0.217 HD
ENDBRANCH   3  21
BRANCH   6  23
ATOM     23  O4  UNK     1      38.610  20.307  -0.346  1.00  0.00    -0.361 OA
ATOM     24  H13 UNK     1      38.603  20.204   0.621  1.00  0.00     0.217 HD
ENDBRANCH   6  23
TORSDOF 8
ENDMDL
MODEL 12
REMARK VINA RESULT:      -8.0      2.118      7.033
REMARK  8 active torsions:
REMARK  status: ('A' for Active; 'I' for Inactive)
REMARK    1  A    between atoms: O2_2  and  C8_13 
REMARK    2  A    between atoms: O3_3  and  C9_14 
REMARK    3  A    between atoms: O4_4  and  C14_19 
REMARK    4  A    between atoms: O5_5  and  C15_20 
REMARK    5  A    between atoms: C1_6  and  C2_7 
REMARK    6  A    between atoms: C1_6  and  C3_8 
REMARK    7  A    between atoms: C2_7  and  C4_9 
REMARK    8  A    between atoms: C4_9  and  C5_10 
ROOT
ATOM      1  C5  UNK     1      39.718  16.705  -2.070  1.00  0.00     0.076 A 
ATOM      2  C8  UNK     1      40.109  17.909  -2.655  1.00  0.00     0.085 A 
ATOM      3  C9  UNK     1      38.958  16.713  -0.900  1.00  0.00     0.085 A 
ATOM      4  C10 UNK     1      39.741  19.120  -2.071  1.00  0.00     0.074 A 
ATOM      5  C11 UNK     1      38.589  17.924  -0.316  1.00  0.00     0.074 A 
ATOM      6  C14 UNK     1      38.981  19.129  -0.901  1.00  0.00     0.071 A 
ENDROOT
BRANCH   1   7
ATOM      7  C4  UNK     1      40.103  15.438  -2.682  1.00  0.00     0.165 C 
ATOM      8  O1  UNK     1      39.269  14.755  -3.307  1.00  0.00    -0.292 OA
BRANCH   7   9
ATOM      9  C2  UNK     1      41.552  14.936  -2.554  1.00  0.00     0.088 C 
BRANCH   9  10
ATOM     10  C1  UNK     1      42.002  14.754  -1.103  1.00  0.00     0.046 C 
BRANCH  10  11
ATOM     11  C3  UNK     1      41.551  13.430  -0.542  1.00  0.00    -0.058 A 
ATOM     12  C6  UNK     1      41.643  12.290  -1.327  1.00  0.00     0.010 A 
ATOM     13  C12 UNK     1      41.226  11.064  -0.807  1.00  0.00     0.037 A 
ATOM     14  C15 UNK     1      40.720  10.993   0.492  1.00  0.00     0.065 A 
ATOM     15  C13 UNK     1      40.633  12.148   1.270  1.00  0.00     0.037 A 
ATOM     16  C7  UNK     1      41.051  13.373   0.751  1.00  0.00     0.010 A 
BRANCH  14  17
ATOM     17  O5  UNK     1      40.315   9.798   0.999  1.00  0.00    -0.361 OA
ATOM     18  H14 UNK     1      39.827   9.955   1.825  1.00  0.00     0.217 HD
ENDBRANCH  14  17
ENDBRANCH  10  11
ENDBRANCH   9  10
ENDBRANCH   7   9
ENDBRANCH   1   7
BRANCH   2  19
ATOM     19  O2  UNK     1      40.851  17.924  -3.799  1.00  0.00    -0.360 OA
ATOM     20  H11 UNK     1      40.280  17.846  -4.579  1.00  0.00     0.217 HD
ENDBRANCH   2  19
BRANCH   3  21
ATOM     21  O3  UNK     1      38.565  15.547  -0.312  1.00  0.00    -0.360 OA
ATOM     22  H12 UNK     1      39.349  14.998  -0.139  1.00  0.00     0.217 HD
ENDBRANCH   3  21
BRANCH   6  23
ATOM     23  O4  UNK     1      38.622  20.310  -0.330  1.00  0.00    -0.361 OA
ATOM     24  H13 UNK     1      39.280  20.987  -0.566  1.00  0.00     0.217 HD
ENDBRANCH   6  23
TORSDOF 8
ENDMDL
MODEL 13
REMARK VINA RESULT:      -8.0      2.117      6.998
REMARK  8 active torsions:
REMARK  status: ('A' for Active; 'I' for Inactive)
REMARK    1  A    between atoms: O2_2  and  C8_13 
REMARK    2  A    between atoms: O3_3  and  C9_14 
REMARK    3  A    between atoms: O4_4  and  C14_19 
REMARK    4  A    between atoms: O5_5  and  C15_20 
REMARK    5  A    between atoms: C1_6  and  C2_7 
REMARK    6  A    between atoms: C1_6  and  C3_8 
REMARK    7  A    between atoms: C2_7  and  C4_9 
REMARK    8  A    between atoms: C4_9  and  C5_10 
ROOT
ATOM      1  C5  UNK     1      39.728  16.703  -2.077  1.00  0.00     0.076 A 
ATOM      2  C8  UNK     1      40.122  17.902  -2.669  1.00  0.00     0.085 A 
ATOM      3  C9  UNK     1      38.967  16.719  -0.908  1.00  0.00     0.085 A 
ATOM      4  C10 UNK     1      39.756  19.118  -2.093  1.00  0.00     0.074 A 
ATOM      5  C11 UNK     1      38.600  17.935  -0.332  1.00  0.00     0.074 A 
ATOM      6  C14 UNK     1      38.995  19.135  -0.924  1.00  0.00     0.071 A 
ENDROOT
BRANCH   1   7
ATOM      7  C4  UNK     1      40.111  15.431  -2.681  1.00  0.00     0.165 C 
ATOM      8  O1  UNK     1      39.276  14.747  -3.303  1.00  0.00    -0.292 OA
BRANCH   7   9
ATOM      9  C2  UNK     1      41.558  14.927  -2.548  1.00  0.00     0.088 C 
BRANCH   9  10
ATOM     10  C1  UNK     1      42.005  14.750  -1.096  1.00  0.00     0.046 C 
BRANCH  10  11
ATOM     11  C3  UNK     1      41.557  13.426  -0.532  1.00  0.00    -0.058 A 
ATOM     12  C6  UNK     1      41.043  13.372   0.754  1.00  0.00     0.010 A 
ATOM     13  C12 UNK     1      40.627  12.146   1.276  1.00  0.00     0.037 A 
ATOM     14  C15 UNK     1      40.733  10.988   0.504  1.00  0.00     0.065 A 
ATOM     15  C13 UNK     1      41.253  11.057  -0.789  1.00  0.00     0.037 A 
ATOM     16  C7  UNK     1      41.667  12.282  -1.310  1.00  0.00     0.010 A 
BRANCH  14  17
ATOM     17  O5  UNK     1      40.327   9.793   1.012  1.00  0.00    -0.361 OA
ATOM     18  H14 UNK     1      41.023   9.133   0.860  1.00  0.00     0.217 HD
ENDBRANCH  14  17
ENDBRANCH  10  11
ENDBRANCH   9  10
ENDBRANCH   7   9
ENDBRANCH   1   7
BRANCH   2  19
ATOM     19  O2  UNK     1      40.866  17.909  -3.812  1.00  0.00    -0.360 OA
ATOM     20  H11 UNK     1      40.404  17.439  -4.524  1.00  0.00     0.217 HD
ENDBRANCH   2  19
BRANCH   3  21
ATOM     21  O3  UNK     1      38.570  15.558  -0.314  1.00  0.00    -0.360 OA
ATOM     22  H12 UNK     1      38.776  15.600   0.636  1.00  0.00     0.217 HD
ENDBRANCH   3  21
BRANCH   6  23
ATOM     23  O4  UNK     1      38.637  20.321  -0.361  1.00  0.00    -0.361 OA
ATOM     24  H13 UNK     1      39.226  20.502   0.392  1.00  0.00     0.217 HD
ENDBRANCH   6  23
TORSDOF 8
ENDMDL
MODEL 14
REMARK VINA RESULT:      -8.0      1.635      7.574
REMARK  8 active torsions:
REMARK  status: ('A' for Active; 'I' for Inactive)
REMARK    1  A    between atoms: O2_2  and  C8_13 
REMARK    2  A    between atoms: O3_3  and  C9_14 
REMARK    3  A    between atoms: O4_4  and  C14_19 
REMARK    4  A    between atoms: O5_5  and  C15_20 
REMARK    5  A    between atoms: C1_6  and  C2_7 
REMARK    6  A    between atoms: C1_6  and  C3_8 
REMARK    7  A    between atoms: C2_7  and  C4_9 
REMARK    8  A    between atoms: C4_9  and  C5_10 
ROOT
ATOM      1  C5  UNK     1      39.060  18.193  -0.716  1.00  0.00     0.076 A 
ATOM      2  C8  UNK     1      38.413  18.793   0.364  1.00  0.00     0.085 A 
ATOM      3  C9  UNK     1      39.731  18.981  -1.652  1.00  0.00     0.085 A 
ATOM      4  C10 UNK     1      38.436  20.180   0.508  1.00  0.00     0.074 A 
ATOM      5  C11 UNK     1      39.755  20.367  -1.508  1.00  0.00     0.074 A 
ATOM      6  C14 UNK     1      39.107  20.967  -0.427  1.00  0.00     0.071 A 
ENDROOT
BRANCH   1   7
ATOM      7  C4  UNK     1      39.036  16.742  -0.866  1.00  0.00     0.165 C 
ATOM      8  O1  UNK     1      37.954  16.125  -0.900  1.00  0.00    -0.292 OA
BRANCH   7   9
ATOM      9  C2  UNK     1      40.357  15.963  -0.980  1.00  0.00     0.088 C 
BRANCH   9  10
ATOM     10  C1  UNK     1      40.263  14.746  -1.903  1.00  0.00     0.046 C 
BRANCH  10  11
ATOM     11  C3  UNK     1      40.454  13.457  -1.146  1.00  0.00    -0.058 A 
ATOM     12  C6  UNK     1      39.756  13.249   0.034  1.00  0.00     0.010 A 
ATOM     13  C12 UNK     1      39.932  12.056   0.734  1.00  0.00     0.037 A 
ATOM     14  C15 UNK     1      40.806  11.084   0.247  1.00  0.00     0.065 A 
ATOM     15  C13 UNK     1      41.503  11.305  -0.942  1.00  0.00     0.037 A 
ATOM     16  C7  UNK     1      41.326  12.498  -1.642  1.00  0.00     0.010 A 
BRANCH  14  17
ATOM     17  O5  UNK     1      40.977   9.919   0.929  1.00  0.00    -0.361 OA
ATOM     18  H14 UNK     1      40.760  10.067   1.865  1.00  0.00     0.217 HD
ENDBRANCH  14  17
ENDBRANCH  10  11
ENDBRANCH   9  10
ENDBRANCH   7   9
ENDBRANCH   1   7
BRANCH   2  19
ATOM     19  O2  UNK     1      37.752  18.042   1.290  1.00  0.00    -0.360 OA
ATOM     20  H11 UNK     1      37.050  18.561   1.714  1.00  0.00     0.217 HD
ENDBRANCH   2  19
BRANCH   3  21
ATOM     21  O3  UNK     1      40.371  18.414  -2.714  1.00  0.00    -0.360 OA
ATOM     22  H12 UNK     1      39.716  17.971  -3.281  1.00  0.00     0.217 HD
ENDBRANCH   3  21
BRANCH   6  23
ATOM     23  O4  UNK     1      39.129  22.321  -0.287  1.00  0.00    -0.361 OA
ATOM     24  H13 UNK     1      39.729  22.552   0.442  1.00  0.00     0.217 HD
ENDBRANCH   6  23
TORSDOF 8
ENDMDL
MODEL 15
REMARK VINA RESULT:      -8.0      1.634      7.473
REMARK  8 active torsions:
REMARK  status: ('A' for Active; 'I' for Inactive)
REMARK    1  A    between atoms: O2_2  and  C8_13 
REMARK    2  A    between atoms: O3_3  and  C9_14 
REMARK    3  A    between atoms: O4_4  and  C14_19 
REMARK    4  A    between atoms: O5_5  and  C15_20 
REMARK    5  A    between atoms: C1_6  and  C2_7 
REMARK    6  A    between atoms: C1_6  and  C3_8 
REMARK    7  A    between atoms: C2_7  and  C4_9 
REMARK    8  A    between atoms: C4_9  and  C5_10 
ROOT
ATOM      1  C5  UNK     1      39.061  18.191  -0.716  1.00  0.00     0.076 A 
ATOM      2  C8  UNK     1      39.732  18.978  -1.652  1.00  0.00     0.085 A 
ATOM      3  C9  UNK     1      38.413  18.792   0.363  1.00  0.00     0.085 A 
ATOM      4  C10 UNK     1      39.756  20.365  -1.509  1.00  0.00     0.074 A 
ATOM      5  C11 UNK     1      38.436  20.179   0.507  1.00  0.00     0.074 A 
ATOM      6  C14 UNK     1      39.108  20.966  -0.430  1.00  0.00     0.071 A 
ENDROOT
BRANCH   1   7
ATOM      7  C4  UNK     1      39.036  16.741  -0.867  1.00  0.00     0.165 C 
ATOM      8  O1  UNK     1      37.954  16.124  -0.900  1.00  0.00    -0.292 OA
BRANCH   7   9
ATOM      9  C2  UNK     1      40.357  15.961  -0.984  1.00  0.00     0.088 C 
BRANCH   9  10
ATOM     10  C1  UNK     1      40.261  14.744  -1.905  1.00  0.00     0.046 C 
BRANCH  10  11
ATOM     11  C3  UNK     1      40.452  13.455  -1.147  1.00  0.00    -0.058 A 
ATOM     12  C6  UNK     1      39.753  13.247   0.031  1.00  0.00     0.010 A 
ATOM     13  C12 UNK     1      39.929  12.054   0.733  1.00  0.00     0.037 A 
ATOM     14  C15 UNK     1      40.806  11.083   0.247  1.00  0.00     0.065 A 
ATOM     15  C13 UNK     1      41.504  11.305  -0.940  1.00  0.00     0.037 A 
ATOM     16  C7  UNK     1      41.326  12.498  -1.641  1.00  0.00     0.010 A 
BRANCH  14  17
ATOM     17  O5  UNK     1      40.977   9.919   0.930  1.00  0.00    -0.361 OA
ATOM     18  H14 UNK     1      40.302   9.281   0.641  1.00  0.00     0.217 HD
ENDBRANCH  14  17
ENDBRANCH  10  11
ENDBRANCH   9  10
ENDBRANCH   7   9
ENDBRANCH   1   7
BRANCH   2  19
ATOM     19  O2  UNK     1      40.371  18.412  -2.715  1.00  0.00    -0.360 OA
ATOM     20  H11 UNK     1      39.948  18.673  -3.548  1.00  0.00     0.217 HD
ENDBRANCH   2  19
BRANCH   3  21
ATOM     21  O3  UNK     1      37.751  18.042   1.289  1.00  0.00    -0.360 OA
ATOM     22  H12 UNK     1      36.887  17.779   0.927  1.00  0.00     0.217 HD
ENDBRANCH   3  21
BRANCH   6  23
ATOM     23  O4  UNK     1      39.132  22.319  -0.289  1.00  0.00    -0.361 OA
ATOM     24  H13 UNK     1      39.729  22.695  -0.958  1.00  0.00     0.217 HD
ENDBRANCH   6  23
TORSDOF 8
ENDMDL
MODEL 16
REMARK VINA RESULT:      -7.9      3.472      7.270
REMARK  8 active torsions:
REMARK  status: ('A' for Active; 'I' for Inactive)
REMARK    1  A    between atoms: O2_2  and  C8_13 
REMARK    2  A    between atoms: O3_3  and  C9_14 
REMARK    3  A    between atoms: O4_4  and  C14_19 
REMARK    4  A    between atoms: O5_5  and  C15_20 
REMARK    5  A    between atoms: C1_6  and  C2_7 
REMARK    6  A    between atoms: C1_6  and  C3_8 
REMARK    7  A    between atoms: C2_7  and  C4_9 
REMARK    8  A    between atoms: C4_9  and  C5_10 
ROOT
ATOM      1  C5  UNK     1      40.244  13.667  -1.152  1.00  0.00     0.076 A 
ATOM      2  C8  UNK     1      40.863  14.914  -1.230  1.00  0.00     0.085 A 
ATOM      3  C9  UNK     1      38.868  13.583  -0.942  1.00  0.00     0.085 A 
ATOM      4  C10 UNK     1      40.106  16.078  -1.097  1.00  0.00     0.074 A 
ATOM      5  C11 UNK     1      38.110  14.746  -0.809  1.00  0.00     0.074 A 
ATOM      6  C14 UNK     1      38.730  15.995  -0.886  1.00  0.00     0.071 A 
ENDROOT
BRANCH   1   7
ATOM      7  C4  UNK     1      41.037  12.450  -1.292  1.00  0.00     0.165 C 
ATOM      8  O1  UNK     1      41.578  12.166  -2.378  1.00  0.00    -0.292 OA
BRANCH   7   9
ATOM      9  C2  UNK     1      41.206  11.505  -0.090  1.00  0.00     0.088 C 
BRANCH   9  10
ATOM     10  C1  UNK     1      41.497  12.240   1.220  1.00  0.00     0.046 C 
BRANCH  10  11
ATOM     11  C3  UNK     1      40.584  11.785   2.329  1.00  0.00    -0.058 A 
ATOM     12  C6  UNK     1      40.000  10.530   2.260  1.00  0.00     0.010 A 
ATOM     13  C12 UNK     1      39.155  10.109   3.287  1.00  0.00     0.037 A 
ATOM     14  C15 UNK     1      38.902  10.950   4.372  1.00  0.00     0.065 A 
ATOM     15  C13 UNK     1      39.496  12.211   4.429  1.00  0.00     0.037 A 
ATOM     16  C7  UNK     1      40.342  12.631   3.402  1.00  0.00     0.010 A 
BRANCH  14  17
ATOM     17  O5  UNK     1      38.079  10.539   5.374  1.00  0.00    -0.361 OA
ATOM     18  H14 UNK     1      37.465   9.872   5.024  1.00  0.00     0.217 HD
ENDBRANCH  14  17
ENDBRANCH  10  11
ENDBRANCH   9  10
ENDBRANCH   7   9
ENDBRANCH   1   7
BRANCH   2  19
ATOM     19  O2  UNK     1      42.207  15.019  -1.435  1.00  0.00    -0.360 OA
ATOM     20  H11 UNK     1      42.430  14.806  -2.355  1.00  0.00     0.217 HD
ENDBRANCH   2  19
BRANCH   3  21
ATOM     21  O3  UNK     1      38.243  12.374  -0.863  1.00  0.00    -0.360 OA
ATOM     22  H12 UNK     1      37.333  12.464  -1.194  1.00  0.00     0.217 HD
ENDBRANCH   3  21
BRANCH   6  23
ATOM     23  O4  UNK     1      37.991  17.130  -0.756  1.00  0.00    -0.361 OA
ATOM     24  H13 UNK     1      37.047  16.897  -0.795  1.00  0.00     0.217 HD
ENDBRANCH   6  23
TORSDOF 8
ENDMDL
MODEL 17
REMARK VINA RESULT:      -7.9      3.472      7.466
REMARK  8 active torsions:
REMARK  status: ('A' for Active; 'I' for Inactive)
REMARK    1  A    between atoms: O2_2  and  C8_13 
REMARK    2  A    between atoms: O3_3  and  C9_14 
REMARK    3  A    between atoms: O4_4  and  C14_19 
REMARK    4  A    between atoms: O5_5  and  C15_20 
REMARK    5  A    between atoms: C1_6  and  C2_7 
REMARK    6  A    between atoms: C1_6  and  C3_8 
REMARK    7  A    between atoms: C2_7  and  C4_9 
REMARK    8  A    between atoms: C4_9  and  C5_10 
ROOT
ATOM      1  C5  UNK     1      40.245  13.667  -1.154  1.00  0.00     0.076 A 
ATOM      2  C8  UNK     1      38.868  13.583  -0.943  1.00  0.00     0.085 A 
ATOM      3  C9  UNK     1      40.863  14.915  -1.230  1.00  0.00     0.085 A 
ATOM      4  C10 UNK     1      38.111  14.747  -0.809  1.00  0.00     0.074 A 
ATOM      5  C11 UNK     1      40.107  16.079  -1.096  1.00  0.00     0.074 A 
ATOM      6  C14 UNK     1      38.729  15.995  -0.885  1.00  0.00     0.071 A 
ENDROOT
BRANCH   1   7
ATOM      7  C4  UNK     1      41.036  12.450  -1.293  1.00  0.00     0.165 C 
ATOM      8  O1  UNK     1      41.577  12.166  -2.379  1.00  0.00    -0.292 OA
BRANCH   7   9
ATOM      9  C2  UNK     1      41.203  11.505  -0.092  1.00  0.00     0.088 C 
BRANCH   9  10
ATOM     10  C1  UNK     1      41.497  12.239   1.218  1.00  0.00     0.046 C 
BRANCH  10  11
ATOM     11  C3  UNK     1      40.584  11.785   2.328  1.00  0.00    -0.058 A 
ATOM     12  C6  UNK     1      39.999  10.530   2.259  1.00  0.00     0.010 A 
ATOM     13  C12 UNK     1      39.154  10.109   3.287  1.00  0.00     0.037 A 
ATOM     14  C15 UNK     1      38.902  10.951   4.371  1.00  0.00     0.065 A 
ATOM     15  C13 UNK     1      39.497  12.212   4.428  1.00  0.00     0.037 A 
ATOM     16  C7  UNK     1      40.342  12.631   3.401  1.00  0.00     0.010 A 
BRANCH  14  17
ATOM     17  O5  UNK     1      38.080  10.540   5.374  1.00  0.00    -0.361 OA
ATOM     18  H14 UNK     1      38.312  11.018   6.188  1.00  0.00     0.217 HD
ENDBRANCH  14  17
ENDBRANCH  10  11
ENDBRANCH   9  10
ENDBRANCH   7   9
ENDBRANCH   1   7
BRANCH   2  19
ATOM     19  O2  UNK     1      38.243  12.374  -0.865  1.00  0.00    -0.360 OA
ATOM     20  H11 UNK     1      37.877  12.235   0.023  1.00  0.00     0.217 HD
ENDBRANCH   2  19
BRANCH   3  21
ATOM     21  O3  UNK     1      42.207  15.019  -1.435  1.00  0.00    -0.360 OA
ATOM     22  H12 UNK     1      42.644  15.215  -0.588  1.00  0.00     0.217 HD
ENDBRANCH   3  21
BRANCH   6  23
ATOM     23  O4  UNK     1      37.991  17.130  -0.755  1.00  0.00    -0.361 OA
ATOM     24  H13 UNK     1      38.201  17.729  -1.493  1.00  0.00     0.217 HD
ENDBRANCH   6  23
TORSDOF 8
ENDMDL
MODEL 18
REMARK VINA RESULT:      -7.7      1.639      7.368
REMARK  8 active torsions:
REMARK  status: ('A' for Active; 'I' for Inactive)
REMARK    1  A    between atoms: O2_2  and  C8_13 
REMARK    2  A    between atoms: O3_3  and  C9_14 
REMARK    3  A    between atoms: O4_4  and  C14_19 
REMARK    4  A    between atoms: O5_5  and  C15_20 
REMARK    5  A    between atoms: C1_6  and  C2_7 
REMARK    6  A    between atoms: C1_6  and  C3_8 
REMARK    7  A    between atoms: C2_7  and  C4_9 
REMARK    8  A    between atoms: C4_9  and  C5_10 
ROOT
ATOM      1  C5  UNK     1      39.483  19.599  -1.102  1.00  0.00     0.076 A 
ATOM      2  C8  UNK     1      40.064  20.834  -1.391  1.00  0.00     0.085 A 
ATOM      3  C9  UNK     1      38.729  19.438   0.060  1.00  0.00     0.085 A 
ATOM      4  C10 UNK     1      39.893  21.907  -0.517  1.00  0.00     0.074 A 
ATOM      5  C11 UNK     1      38.557  20.511   0.934  1.00  0.00     0.074 A 
ATOM      6  C14 UNK     1      39.139  21.746   0.646  1.00  0.00     0.071 A 
ENDROOT
BRANCH   1   7
ATOM      7  C4  UNK     1      39.662  18.478  -2.017  1.00  0.00     0.165 C 
ATOM      8  O1  UNK     1      39.659  18.657  -3.250  1.00  0.00    -0.292 OA
BRANCH   7   9
ATOM      9  C2  UNK     1      39.855  17.058  -1.458  1.00  0.00     0.088 C 
BRANCH   9  10
ATOM     10  C1  UNK     1      40.377  16.064  -2.498  1.00  0.00     0.046 C 
BRANCH  10  11
ATOM     11  C3  UNK     1      40.536  14.682  -1.918  1.00  0.00    -0.058 A 
ATOM     12  C6  UNK     1      39.452  14.071  -1.306  1.00  0.00     0.010 A 
ATOM     13  C12 UNK     1      39.599  12.792  -0.769  1.00  0.00     0.037 A 
ATOM     14  C15 UNK     1      40.830  12.139  -0.850  1.00  0.00     0.065 A 
ATOM     15  C13 UNK     1      41.913  12.766  -1.468  1.00  0.00     0.037 A 
ATOM     16  C7  UNK     1      41.765  14.044  -2.005  1.00  0.00     0.010 A 
BRANCH  14  17
ATOM     17  O5  UNK     1      40.973  10.891  -0.328  1.00  0.00    -0.361 OA
ATOM     18  H14 UNK     1      40.561  10.868   0.552  1.00  0.00     0.217 HD
ENDBRANCH  14  17
ENDBRANCH  10  11
ENDBRANCH   9  10
ENDBRANCH   7   9
ENDBRANCH   1   7
BRANCH   2  19
ATOM     19  O2  UNK     1      40.804  21.013  -2.522  1.00  0.00    -0.360 OA
ATOM     20  H11 UNK     1      41.745  21.110  -2.304  1.00  0.00     0.217 HD
ENDBRANCH   2  19
BRANCH   3  21
ATOM     21  O3  UNK     1      38.151  18.240   0.361  1.00  0.00    -0.360 OA
ATOM     22  H12 UNK     1      38.039  17.727  -0.458  1.00  0.00     0.217 HD
ENDBRANCH   3  21
BRANCH   6  23
ATOM     23  O4  UNK     1      38.972  22.793   1.499  1.00  0.00    -0.361 OA
ATOM     24  H13 UNK     1      38.024  23.005   1.555  1.00  0.00     0.217 HD
ENDBRANCH   6  23
TORSDOF 8
ENDMDL
MODEL 19
REMARK VINA RESULT:      -7.7      1.639      7.485
REMARK  8 active torsions:
REMARK  status: ('A' for Active; 'I' for Inactive)
REMARK    1  A    between atoms: O2_2  and  C8_13 
REMARK    2  A    between atoms: O3_3  and  C9_14 
REMARK    3  A    between atoms: O4_4  and  C14_19 
REMARK    4  A    between atoms: O5_5  and  C15_20 
REMARK    5  A    between atoms: C1_6  and  C2_7 
REMARK    6  A    between atoms: C1_6  and  C3_8 
REMARK    7  A    between atoms: C2_7  and  C4_9 
REMARK    8  A    between atoms: C4_9  and  C5_10 
ROOT
ATOM      1  C5  UNK     1      39.481  19.599  -1.102  1.00  0.00     0.076 A 
ATOM      2  C8  UNK     1      38.729  19.435   0.060  1.00  0.00     0.085 A 
ATOM      3  C9  UNK     1      40.062  20.834  -1.389  1.00  0.00     0.085 A 
ATOM      4  C10 UNK     1      38.556  20.507   0.936  1.00  0.00     0.074 A 
ATOM      5  C11 UNK     1      39.890  21.906  -0.514  1.00  0.00     0.074 A 
ATOM      6  C14 UNK     1      39.137  21.742   0.650  1.00  0.00     0.071 A 
ENDROOT
BRANCH   1   7
ATOM      7  C4  UNK     1      39.662  18.477  -2.017  1.00  0.00     0.165 C 
ATOM      8  O1  UNK     1      39.658  18.657  -3.251  1.00  0.00    -0.292 OA
BRANCH   7   9
ATOM      9  C2  UNK     1      39.855  17.058  -1.458  1.00  0.00     0.088 C 
BRANCH   9  10
ATOM     10  C1  UNK     1      40.378  16.065  -2.498  1.00  0.00     0.046 C 
BRANCH  10  11
ATOM     11  C3  UNK     1      40.537  14.683  -1.918  1.00  0.00    -0.058 A 
ATOM     12  C6  UNK     1      39.454  14.072  -1.306  1.00  0.00     0.010 A 
ATOM     13  C12 UNK     1      39.601  12.792  -0.770  1.00  0.00     0.037 A 
ATOM     14  C15 UNK     1      40.832  12.139  -0.850  1.00  0.00     0.065 A 
ATOM     15  C13 UNK     1      41.914  12.766  -1.468  1.00  0.00     0.037 A 
ATOM     16  C7  UNK     1      41.766  14.045  -2.005  1.00  0.00     0.010 A 
BRANCH  14  17
ATOM     17  O5  UNK     1      40.975  10.891  -0.328  1.00  0.00    -0.361 OA
ATOM     18  H14 UNK     1      40.273  10.741   0.327  1.00  0.00     0.217 HD
ENDBRANCH  14  17
ENDBRANCH  10  11
ENDBRANCH   9  10
ENDBRANCH   7   9
ENDBRANCH   1   7
BRANCH   2  19
ATOM     19  O2  UNK     1      38.153  18.237   0.360  1.00  0.00    -0.360 OA
ATOM     20  H11 UNK     1      37.246  18.363   0.682  1.00  0.00     0.217 HD
ENDBRANCH   2  19
BRANCH   3  21
ATOM     21  O3  UNK     1      40.802  21.015  -2.520  1.00  0.00    -0.360 OA
ATOM     22  H12 UNK     1      41.746  20.923  -2.300  1.00  0.00     0.217 HD
ENDBRANCH   3  21
BRANCH   6  23
ATOM     23  O4  UNK     1      38.968  22.789   1.503  1.00  0.00    -0.361 OA
ATOM     24  H13 UNK     1      39.399  22.577   2.350  1.00  0.00     0.217 HD
ENDBRANCH   6  23
TORSDOF 8
ENDMDL
MODEL 20
REMARK VINA RESULT:      -7.7      1.785      7.595
REMARK  8 active torsions:
REMARK  status: ('A' for Active; 'I' for Inactive)
REMARK    1  A    between atoms: O2_2  and  C8_13 
REMARK    2  A    between atoms: O3_3  and  C9_14 
REMARK    3  A    between atoms: O4_4  and  C14_19 
REMARK    4  A    between atoms: O5_5  and  C15_20 
REMARK    5  A    between atoms: C1_6  and  C2_7 
REMARK    6  A    between atoms: C1_6  and  C3_8 
REMARK    7  A    between atoms: C2_7  and  C4_9 
REMARK    8  A    between atoms: C4_9  and  C5_10 
ROOT
ATOM      1  C5  UNK     1      39.251  20.241  -0.623  1.00  0.00     0.076 A 
ATOM      2  C8  UNK     1      40.075  20.953  -1.494  1.00  0.00     0.085 A 
ATOM      3  C9  UNK     1      38.811  20.833   0.561  1.00  0.00     0.085 A 
ATOM      4  C10 UNK     1      40.461  22.256  -1.181  1.00  0.00     0.074 A 
ATOM      5  C11 UNK     1      39.196  22.136   0.874  1.00  0.00     0.074 A 
ATOM      6  C14 UNK     1      40.022  22.848   0.003  1.00  0.00     0.071 A 
ENDROOT
BRANCH   1   7
ATOM      7  C4  UNK     1      38.848  18.878  -0.952  1.00  0.00     0.165 C 
ATOM      8  O1  UNK     1      37.676  18.628  -1.295  1.00  0.00    -0.292 OA
BRANCH   7   9
ATOM      9  C2  UNK     1      39.875  17.737  -0.873  1.00  0.00     0.088 C 
BRANCH   9  10
ATOM     10  C1  UNK     1      39.970  16.919  -2.163  1.00  0.00     0.046 C 
BRANCH  10  11
ATOM     11  C3  UNK     1      40.268  15.468  -1.881  1.00  0.00    -0.058 A 
ATOM     12  C6  UNK     1      39.263  14.648  -1.393  1.00  0.00     0.010 A 
ATOM     13  C12 UNK     1      39.538  13.305  -1.133  1.00  0.00     0.037 A 
ATOM     14  C15 UNK     1      40.818  12.799  -1.363  1.00  0.00     0.065 A 
ATOM     15  C13 UNK     1      41.821  13.635  -1.854  1.00  0.00     0.037 A 
ATOM     16  C7  UNK     1      41.545  14.977  -2.115  1.00  0.00     0.010 A 
BRANCH  14  17
ATOM     17  O5  UNK     1      41.087  11.489  -1.111  1.00  0.00    -0.361 OA
ATOM     18  H14 UNK     1      40.256  11.032  -0.896  1.00  0.00     0.217 HD
ENDBRANCH  14  17
ENDBRANCH  10  11
ENDBRANCH   9  10
ENDBRANCH   7   9
ENDBRANCH   1   7
BRANCH   2  19
ATOM     19  O2  UNK     1      40.516  20.394  -2.657  1.00  0.00    -0.360 OA
ATOM     20  H11 UNK     1      39.769  20.184  -3.241  1.00  0.00     0.217 HD
ENDBRANCH   2  19
BRANCH   3  21
ATOM     21  O3  UNK     1      38.004  20.155   1.426  1.00  0.00    -0.360 OA
ATOM     22  H12 UNK     1      37.152  19.975   0.992  1.00  0.00     0.217 HD
ENDBRANCH   3  21
BRANCH   6  23
ATOM     23  O4  UNK     1      40.398  24.119   0.309  1.00  0.00    -0.361 OA
ATOM     24  H13 UNK     1      39.763  24.740  -0.088  1.00  0.00     0.217 HD
ENDBRANCH   6  23
TORSDOF 8
ENDMDL
