MODEL 1
REMARK VINA RESULT:      -9.0      0.000      0.000
REMARK  8 active torsions:
REMARK  status: ('A' for Active; 'I' for Inactive)
REMARK    1  A    between atoms: O2_2  and  C8_13 
REMARK    2  A    between atoms: O3_3  and  C9_14 
REMARK    3  A    between atoms: O4_4  and  C14_19 
REMARK    4  A    between atoms: O5_5  and  C15_20 
REMARK    5  A    between atoms: C1_6  and  C2_7 
REMARK    6  A    between atoms: C1_6  and  C3_8 
REMARK    7  A    between atoms: C2_7  and  C4_9 
REMARK    8  A    between atoms: C4_9  and  C5_10 
ROOT
ATOM      1  C5  UNK     1      39.990  14.812  -1.489  1.00  0.00     0.076 A 
ATOM      2  C8  UNK     1      41.187  14.275  -1.014  1.00  0.00     0.085 A 
ATOM      3  C9  UNK     1      38.799  14.103  -1.334  1.00  0.00     0.085 A 
ATOM      4  C10 UNK     1      41.193  13.031  -0.385  1.00  0.00     0.074 A 
ATOM      5  C11 UNK     1      38.804  12.859  -0.705  1.00  0.00     0.074 A 
ATOM      6  C14 UNK     1      40.001  12.322  -0.230  1.00  0.00     0.071 A 
ENDROOT
BRANCH   1   7
ATOM      7  C4  UNK     1      39.985  16.114  -2.146  1.00  0.00     0.165 C 
ATOM      8  O1  UNK     1      40.249  16.214  -3.360  1.00  0.00    -0.292 OA
BRANCH   7   9
ATOM      9  C2  UNK     1      39.655  17.379  -1.335  1.00  0.00     0.088 C 
BRANCH   9  10
ATOM     10  C1  UNK     1      39.753  18.666  -2.157  1.00  0.00     0.046 C 
BRANCH  10  11
ATOM     11  C3  UNK     1      39.638  19.891  -1.287  1.00  0.00    -0.058 A 
ATOM     12  C6  UNK     1      38.849  19.847  -0.148  1.00  0.00     0.010 A 
ATOM     13  C12 UNK     1      38.743  20.982   0.657  1.00  0.00     0.037 A 
ATOM     14  C15 UNK     1      39.426  22.149   0.311  1.00  0.00     0.065 A 
ATOM     15  C13 UNK     1      40.215  22.180  -0.838  1.00  0.00     0.037 A 
ATOM     16  C7  UNK     1      40.322  21.045  -1.642  1.00  0.00     0.010 A 
BRANCH  14  17
ATOM     17  O5  UNK     1      39.323  23.255   1.097  1.00  0.00    -0.361 OA
ATOM     18  H14 UNK     1      40.210  23.625   1.239  1.00  0.00     0.217 HD
ENDBRANCH  14  17
ENDBRANCH  10  11
ENDBRANCH   9  10
ENDBRANCH   7   9
ENDBRANCH   1   7
BRANCH   2  19
ATOM     19  O2  UNK     1      42.363  14.951  -1.154  1.00  0.00    -0.360 OA
ATOM     20  H11 UNK     1      42.236  15.898  -0.986  1.00  0.00     0.217 HD
ENDBRANCH   2  19
BRANCH   3  21
ATOM     21  O3  UNK     1      37.618  14.610  -1.790  1.00  0.00    -0.360 OA
ATOM     22  H12 UNK     1      37.145  15.029  -1.050  1.00  0.00     0.217 HD
ENDBRANCH   3  21
BRANCH   6  23
ATOM     23  O4  UNK     1      40.006  11.107   0.383  1.00  0.00    -0.361 OA
ATOM     24  H13 UNK     1      40.899  10.931   0.727  1.00  0.00     0.217 HD
ENDBRANCH   6  23
TORSDOF 8
ENDMDL
MODEL 2
REMARK VINA RESULT:      -8.9      0.024      1.863
REMARK  8 active torsions:
REMARK  status: ('A' for Active; 'I' for Inactive)
REMARK    1  A    between atoms: O2_2  and  C8_13 
REMARK    2  A    between atoms: O3_3  and  C9_14 
REMARK    3  A    between atoms: O4_4  and  C14_19 
REMARK    4  A    between atoms: O5_5  and  C15_20 
REMARK    5  A    between atoms: C1_6  and  C2_7 
REMARK    6  A    between atoms: C1_6  and  C3_8 
REMARK    7  A    between atoms: C2_7  and  C4_9 
REMARK    8  A    between atoms: C4_9  and  C5_10 
ROOT
ATOM      1  C5  UNK     1      39.975  14.805  -1.484  1.00  0.00     0.076 A 
ATOM      2  C8  UNK     1      38.781  14.100  -1.335  1.00  0.00     0.085 A 
ATOM      3  C9  UNK     1      41.167  14.266  -1.001  1.00  0.00     0.085 A 
ATOM      4  C10 UNK     1      38.779  12.857  -0.702  1.00  0.00     0.074 A 
ATOM      5  C11 UNK     1      41.166  13.023  -0.369  1.00  0.00     0.074 A 
ATOM      6  C14 UNK     1      39.971  12.318  -0.219  1.00  0.00     0.071 A 
ENDROOT
BRANCH   1   7
ATOM      7  C4  UNK     1      39.976  16.105  -2.145  1.00  0.00     0.165 C 
ATOM      8  O1  UNK     1      40.236  16.199  -3.361  1.00  0.00    -0.292 OA
BRANCH   7   9
ATOM      9  C2  UNK     1      39.656  17.374  -1.338  1.00  0.00     0.088 C 
BRANCH   9  10
ATOM     10  C1  UNK     1      39.753  18.657  -2.166  1.00  0.00     0.046 C 
BRANCH  10  11
ATOM     11  C3  UNK     1      39.639  19.887  -1.302  1.00  0.00    -0.058 A 
ATOM     12  C6  UNK     1      38.853  19.849  -0.162  1.00  0.00     0.010 A 
ATOM     13  C12 UNK     1      38.748  20.988   0.638  1.00  0.00     0.037 A 
ATOM     14  C15 UNK     1      39.430  22.153   0.285  1.00  0.00     0.065 A 
ATOM     15  C13 UNK     1      40.218  22.178  -0.866  1.00  0.00     0.037 A 
ATOM     16  C7  UNK     1      40.324  21.039  -1.664  1.00  0.00     0.010 A 
BRANCH  14  17
ATOM     17  O5  UNK     1      39.329  23.262   1.066  1.00  0.00    -0.361 OA
ATOM     18  H14 UNK     1      38.653  23.851   0.691  1.00  0.00     0.217 HD
ENDBRANCH  14  17
ENDBRANCH  10  11
ENDBRANCH   9  10
ENDBRANCH   7   9
ENDBRANCH   1   7
BRANCH   2  19
ATOM     19  O2  UNK     1      37.604  14.608  -1.799  1.00  0.00    -0.360 OA
ATOM     20  H11 UNK     1      37.511  14.441  -2.751  1.00  0.00     0.217 HD
ENDBRANCH   2  19
BRANCH   3  21
ATOM     21  O3  UNK     1      42.346  14.938  -1.137  1.00  0.00    -0.360 OA
ATOM     22  H12 UNK     1      42.166  15.827  -1.490  1.00  0.00     0.217 HD
ENDBRANCH   3  21
BRANCH   6  23
ATOM     23  O4  UNK     1      39.970  11.105   0.398  1.00  0.00    -0.361 OA
ATOM     24  H13 UNK     1      40.878  10.759   0.413  1.00  0.00     0.217 HD
ENDBRANCH   6  23
TORSDOF 8
ENDMDL
MODEL 3
REMARK VINA RESULT:      -8.9      0.020      2.154
REMARK  8 active torsions:
REMARK  status: ('A' for Active; 'I' for Inactive)
REMARK    1  A    between atoms: O2_2  and  C8_13 
REMARK    2  A    between atoms: O3_3  and  C9_14 
REMARK    3  A    between atoms: O4_4  and  C14_19 
REMARK    4  A    between atoms: O5_5  and  C15_20 
REMARK    5  A    between atoms: C1_6  and  C2_7 
REMARK    6  A    between atoms: C1_6  and  C3_8 
REMARK    7  A    between atoms: C2_7  and  C4_9 
REMARK    8  A    between atoms: C4_9  and  C5_10 
ROOT
ATOM      1  C5  UNK     1      39.981  14.803  -1.479  1.00  0.00     0.076 A 
ATOM      2  C8  UNK     1      38.790  14.093  -1.335  1.00  0.00     0.085 A 
ATOM      3  C9  UNK     1      41.176  14.265  -0.999  1.00  0.00     0.085 A 
ATOM      4  C10 UNK     1      38.792  12.846  -0.710  1.00  0.00     0.074 A 
ATOM      5  C11 UNK     1      41.179  13.019  -0.375  1.00  0.00     0.074 A 
ATOM      6  C14 UNK     1      39.986  12.308  -0.230  1.00  0.00     0.071 A 
ENDROOT
BRANCH   1   7
ATOM      7  C4  UNK     1      39.978  16.107  -2.133  1.00  0.00     0.165 C 
ATOM      8  O1  UNK     1      40.229  16.208  -3.349  1.00  0.00    -0.292 OA
BRANCH   7   9
ATOM      9  C2  UNK     1      39.665  17.371  -1.315  1.00  0.00     0.088 C 
BRANCH   9  10
ATOM     10  C1  UNK     1      39.731  18.657  -2.142  1.00  0.00     0.046 C 
BRANCH  10  11
ATOM     11  C3  UNK     1      39.625  19.884  -1.273  1.00  0.00    -0.058 A 
ATOM     12  C6  UNK     1      40.313  21.033  -1.631  1.00  0.00     0.010 A 
ATOM     13  C12 UNK     1      40.215  22.170  -0.826  1.00  0.00     0.037 A 
ATOM     14  C15 UNK     1      39.431  22.142   0.327  1.00  0.00     0.065 A 
ATOM     15  C13 UNK     1      38.744  20.978   0.676  1.00  0.00     0.037 A 
ATOM     16  C7  UNK     1      38.842  19.843  -0.129  1.00  0.00     0.010 A 
BRANCH  14  17
ATOM     17  O5  UNK     1      39.334  23.250   1.111  1.00  0.00    -0.361 OA
ATOM     18  H14 UNK     1      40.036  23.875   0.861  1.00  0.00     0.217 HD
ENDBRANCH  14  17
ENDBRANCH  10  11
ENDBRANCH   9  10
ENDBRANCH   7   9
ENDBRANCH   1   7
BRANCH   2  19
ATOM     19  O2  UNK     1      37.611  14.599  -1.797  1.00  0.00    -0.360 OA
ATOM     20  H11 UNK     1      37.130  15.051  -1.085  1.00  0.00     0.217 HD
ENDBRANCH   2  19
BRANCH   3  21
ATOM     21  O3  UNK     1      42.352  14.942  -1.130  1.00  0.00    -0.360 OA
ATOM     22  H12 UNK     1      43.091  14.317  -1.039  1.00  0.00     0.217 HD
ENDBRANCH   3  21
BRANCH   6  23
ATOM     23  O4  UNK     1      39.989  11.092   0.380  1.00  0.00    -0.361 OA
ATOM     24  H13 UNK     1      39.595  10.437  -0.221  1.00  0.00     0.217 HD
ENDBRANCH   6  23
TORSDOF 8
ENDMDL
MODEL 4
REMARK VINA RESULT:      -8.9      0.029      1.081
REMARK  8 active torsions:
REMARK  status: ('A' for Active; 'I' for Inactive)
REMARK    1  A    between atoms: O2_2  and  C8_13 
REMARK    2  A    between atoms: O3_3  and  C9_14 
REMARK    3  A    between atoms: O4_4  and  C14_19 
REMARK    4  A    between atoms: O5_5  and  C15_20 
REMARK    5  A    between atoms: C1_6  and  C2_7 
REMARK    6  A    between atoms: C1_6  and  C3_8 
REMARK    7  A    between atoms: C2_7  and  C4_9 
REMARK    8  A    between atoms: C4_9  and  C5_10 
ROOT
ATOM      1  C5  UNK     1      39.960  14.807  -1.486  1.00  0.00     0.076 A 
ATOM      2  C8  UNK     1      41.158  14.273  -1.010  1.00  0.00     0.085 A 
ATOM      3  C9  UNK     1      38.769  14.099  -1.325  1.00  0.00     0.085 A 
ATOM      4  C10 UNK     1      41.165  13.032  -0.374  1.00  0.00     0.074 A 
ATOM      5  C11 UNK     1      38.775  12.858  -0.689  1.00  0.00     0.074 A 
ATOM      6  C14 UNK     1      39.974  12.324  -0.213  1.00  0.00     0.071 A 
ENDROOT
BRANCH   1   7
ATOM      7  C4  UNK     1      39.954  16.105  -2.150  1.00  0.00     0.165 C 
ATOM      8  O1  UNK     1      40.207  16.197  -3.367  1.00  0.00    -0.292 OA
BRANCH   7   9
ATOM      9  C2  UNK     1      39.637  17.376  -1.343  1.00  0.00     0.088 C 
BRANCH   9  10
ATOM     10  C1  UNK     1      39.748  18.659  -2.169  1.00  0.00     0.046 C 
BRANCH  10  11
ATOM     11  C3  UNK     1      39.638  19.889  -1.304  1.00  0.00    -0.058 A 
ATOM     12  C6  UNK     1      40.320  21.040  -1.667  1.00  0.00     0.010 A 
ATOM     13  C12 UNK     1      40.218  22.179  -0.866  1.00  0.00     0.037 A 
ATOM     14  C15 UNK     1      39.436  22.151   0.289  1.00  0.00     0.065 A 
ATOM     15  C13 UNK     1      38.755  20.986   0.643  1.00  0.00     0.037 A 
ATOM     16  C7  UNK     1      38.857  19.849  -0.158  1.00  0.00     0.010 A 
BRANCH  14  17
ATOM     17  O5  UNK     1      39.335  23.262   1.068  1.00  0.00    -0.361 OA
ATOM     18  H14 UNK     1      39.405  22.999   2.002  1.00  0.00     0.217 HD
ENDBRANCH  14  17
ENDBRANCH  10  11
ENDBRANCH   9  10
ENDBRANCH   7   9
ENDBRANCH   1   7
BRANCH   2  19
ATOM     19  O2  UNK     1      42.333  14.948  -1.156  1.00  0.00    -0.360 OA
ATOM     20  H11 UNK     1      42.209  15.894  -0.979  1.00  0.00     0.217 HD
ENDBRANCH   2  19
BRANCH   3  21
ATOM     21  O3  UNK     1      37.588  14.603  -1.782  1.00  0.00    -0.360 OA
ATOM     22  H12 UNK     1      37.082  13.891  -2.210  1.00  0.00     0.217 HD
ENDBRANCH   3  21
BRANCH   6  23
ATOM     23  O4  UNK     1      39.980  11.113   0.407  1.00  0.00    -0.361 OA
ATOM     24  H13 UNK     1      40.746  10.602   0.093  1.00  0.00     0.217 HD
ENDBRANCH   6  23
TORSDOF 8
ENDMDL
MODEL 5
REMARK VINA RESULT:      -8.5      0.955      2.178
REMARK  8 active torsions:
REMARK  status: ('A' for Active; 'I' for Inactive)
REMARK    1  A    between atoms: O2_2  and  C8_13 
REMARK    2  A    between atoms: O3_3  and  C9_14 
REMARK    3  A    between atoms: O4_4  and  C14_19 
REMARK    4  A    between atoms: O5_5  and  C15_20 
REMARK    5  A    between atoms: C1_6  and  C2_7 
REMARK    6  A    between atoms: C1_6  and  C3_8 
REMARK    7  A    between atoms: C2_7  and  C4_9 
REMARK    8  A    between atoms: C4_9  and  C5_10 
ROOT
ATOM      1  C5  UNK     1      40.192  14.239  -1.463  1.00  0.00     0.076 A 
ATOM      2  C8  UNK     1      39.244  13.319  -1.016  1.00  0.00     0.085 A 
ATOM      3  C9  UNK     1      41.498  14.185  -0.976  1.00  0.00     0.085 A 
ATOM      4  C10 UNK     1      39.601  12.346  -0.083  1.00  0.00     0.074 A 
ATOM      5  C11 UNK     1      41.856  13.212  -0.043  1.00  0.00     0.074 A 
ATOM      6  C14 UNK     1      40.907  12.292   0.404  1.00  0.00     0.071 A 
ENDROOT
BRANCH   1   7
ATOM      7  C4  UNK     1      39.818  15.255  -2.439  1.00  0.00     0.165 C 
ATOM      8  O1  UNK     1      39.410  14.929  -3.571  1.00  0.00    -0.292 OA
BRANCH   7   9
ATOM      9  C2  UNK     1      39.929  16.745  -2.073  1.00  0.00     0.088 C 
BRANCH   9  10
ATOM     10  C1  UNK     1      39.109  17.127  -0.840  1.00  0.00     0.046 C 
BRANCH  10  11
ATOM     11  C3  UNK     1      39.113  18.616  -0.607  1.00  0.00    -0.058 A 
ATOM     12  C6  UNK     1      38.442  19.137   0.488  1.00  0.00     0.010 A 
ATOM     13  C12 UNK     1      38.447  20.516   0.704  1.00  0.00     0.037 A 
ATOM     14  C15 UNK     1      39.122  21.358  -0.180  1.00  0.00     0.065 A 
ATOM     15  C13 UNK     1      39.794  20.820  -1.279  1.00  0.00     0.037 A 
ATOM     16  C7  UNK     1      39.789  19.442  -1.494  1.00  0.00     0.010 A 
BRANCH  14  17
ATOM     17  O5  UNK     1      39.128  22.701   0.030  1.00  0.00    -0.361 OA
ATOM     18  H14 UNK     1      40.027  22.978   0.276  1.00  0.00     0.217 HD
ENDBRANCH  14  17
ENDBRANCH  10  11
ENDBRANCH   9  10
ENDBRANCH   7   9
ENDBRANCH   1   7
BRANCH   2  19
ATOM     19  O2  UNK     1      37.962  13.353  -1.479  1.00  0.00    -0.360 OA
ATOM     20  H11 UNK     1      37.476  12.559  -1.201  1.00  0.00     0.217 HD
ENDBRANCH   2  19
BRANCH   3  21
ATOM     21  O3  UNK     1      42.441  15.074  -1.400  1.00  0.00    -0.360 OA
ATOM     22  H12 UNK     1      42.924  14.691  -2.153  1.00  0.00     0.217 HD
ENDBRANCH   3  21
BRANCH   6  23
ATOM     23  O4  UNK     1      41.256  11.344   1.315  1.00  0.00    -0.361 OA
ATOM     24  H13 UNK     1      41.427  10.507   0.849  1.00  0.00     0.217 HD
ENDBRANCH   6  23
TORSDOF 8
ENDMDL
MODEL 6
REMARK VINA RESULT:      -8.1      1.735      3.026
REMARK  8 active torsions:
REMARK  status: ('A' for Active; 'I' for Inactive)
REMARK    1  A    between atoms: O2_2  and  C8_13 
REMARK    2  A    between atoms: O3_3  and  C9_14 
REMARK    3  A    between atoms: O4_4  and  C14_19 
REMARK    4  A    between atoms: O5_5  and  C15_20 
REMARK    5  A    between atoms: C1_6  and  C2_7 
REMARK    6  A    between atoms: C1_6  and  C3_8 
REMARK    7  A    between atoms: C2_7  and  C4_9 
REMARK    8  A    between atoms: C4_9  and  C5_10 
ROOT
ATOM      1  C5  UNK     1      40.157  13.191  -1.461  1.00  0.00     0.076 A 
ATOM      2  C8  UNK     1      39.078  12.955  -0.609  1.00  0.00     0.085 A 
ATOM      3  C9  UNK     1      41.297  12.391  -1.381  1.00  0.00     0.085 A 
ATOM      4  C10 UNK     1      39.140  11.920   0.324  1.00  0.00     0.074 A 
ATOM      5  C11 UNK     1      41.359  11.356  -0.449  1.00  0.00     0.074 A 
ATOM      6  C14 UNK     1      40.280  11.120   0.405  1.00  0.00     0.071 A 
ENDROOT
BRANCH   1   7
ATOM      7  C4  UNK     1      40.091  14.273  -2.437  1.00  0.00     0.165 C 
ATOM      8  O1  UNK     1      39.240  14.256  -3.348  1.00  0.00    -0.292 OA
BRANCH   7   9
ATOM      9  C2  UNK     1      41.081  15.446  -2.346  1.00  0.00     0.088 C 
BRANCH   9  10
ATOM     10  C1  UNK     1      40.540  16.742  -2.953  1.00  0.00     0.046 C 
BRANCH  10  11
ATOM     11  C3  UNK     1      39.872  17.607  -1.916  1.00  0.00    -0.058 A 
ATOM     12  C6  UNK     1      39.826  18.980  -2.100  1.00  0.00     0.010 A 
ATOM     13  C12 UNK     1      39.207  19.781  -1.140  1.00  0.00     0.037 A 
ATOM     14  C15 UNK     1      38.643  19.198  -0.004  1.00  0.00     0.065 A 
ATOM     15  C13 UNK     1      38.697  17.815   0.170  1.00  0.00     0.037 A 
ATOM     16  C7  UNK     1      39.315  17.015  -0.791  1.00  0.00     0.010 A 
BRANCH  14  17
ATOM     17  O5  UNK     1      38.038  19.979   0.931  1.00  0.00    -0.361 OA
ATOM     18  H14 UNK     1      38.115  20.910   0.663  1.00  0.00     0.217 HD
ENDBRANCH  14  17
ENDBRANCH  10  11
ENDBRANCH   9  10
ENDBRANCH   7   9
ENDBRANCH   1   7
BRANCH   2  19
ATOM     19  O2  UNK     1      37.954  13.724  -0.670  1.00  0.00    -0.360 OA
ATOM     20  H11 UNK     1      38.184  14.655  -0.819  1.00  0.00     0.217 HD
ENDBRANCH   2  19
BRANCH   3  21
ATOM     21  O3  UNK     1      42.361  12.604  -2.206  1.00  0.00    -0.360 OA
ATOM     22  H12 UNK     1      42.057  13.069  -3.004  1.00  0.00     0.217 HD
ENDBRANCH   3  21
BRANCH   6  23
ATOM     23  O4  UNK     1      40.341  10.111   1.315  1.00  0.00    -0.361 OA
ATOM     24  H13 UNK     1      40.052  10.449   2.181  1.00  0.00     0.217 HD
ENDBRANCH   6  23
TORSDOF 8
ENDMDL
MODEL 7
REMARK VINA RESULT:      -8.1      1.737      2.493
REMARK  8 active torsions:
REMARK  status: ('A' for Active; 'I' for Inactive)
REMARK    1  A    between atoms: O2_2  and  C8_13 
REMARK    2  A    between atoms: O3_3  and  C9_14 
REMARK    3  A    between atoms: O4_4  and  C14_19 
REMARK    4  A    between atoms: O5_5  and  C15_20 
REMARK    5  A    between atoms: C1_6  and  C2_7 
REMARK    6  A    between atoms: C1_6  and  C3_8 
REMARK    7  A    between atoms: C2_7  and  C4_9 
REMARK    8  A    between atoms: C4_9  and  C5_10 
ROOT
ATOM      1  C5  UNK     1      40.152  13.192  -1.463  1.00  0.00     0.076 A 
ATOM      2  C8  UNK     1      41.294  12.395  -1.382  1.00  0.00     0.085 A 
ATOM      3  C9  UNK     1      39.075  12.955  -0.610  1.00  0.00     0.085 A 
ATOM      4  C10 UNK     1      41.358  11.361  -0.448  1.00  0.00     0.074 A 
ATOM      5  C11 UNK     1      39.138  11.922   0.324  1.00  0.00     0.074 A 
ATOM      6  C14 UNK     1      40.280  11.124   0.405  1.00  0.00     0.071 A 
ENDROOT
BRANCH   1   7
ATOM      7  C4  UNK     1      40.087  14.273  -2.440  1.00  0.00     0.165 C 
ATOM      8  O1  UNK     1      39.233  14.258  -3.347  1.00  0.00    -0.292 OA
BRANCH   7   9
ATOM      9  C2  UNK     1      41.082  15.443  -2.353  1.00  0.00     0.088 C 
BRANCH   9  10
ATOM     10  C1  UNK     1      40.543  16.740  -2.961  1.00  0.00     0.046 C 
BRANCH  10  11
ATOM     11  C3  UNK     1      39.874  17.605  -1.924  1.00  0.00    -0.058 A 
ATOM     12  C6  UNK     1      39.825  18.978  -2.110  1.00  0.00     0.010 A 
ATOM     13  C12 UNK     1      39.205  19.778  -1.150  1.00  0.00     0.037 A 
ATOM     14  C15 UNK     1      38.643  19.196  -0.013  1.00  0.00     0.065 A 
ATOM     15  C13 UNK     1      38.700  17.813   0.162  1.00  0.00     0.037 A 
ATOM     16  C7  UNK     1      39.319  17.013  -0.798  1.00  0.00     0.010 A 
BRANCH  14  17
ATOM     17  O5  UNK     1      38.037  19.976   0.922  1.00  0.00    -0.361 OA
ATOM     18  H14 UNK     1      38.695  20.583   1.300  1.00  0.00     0.217 HD
ENDBRANCH  14  17
ENDBRANCH  10  11
ENDBRANCH   9  10
ENDBRANCH   7   9
ENDBRANCH   1   7
BRANCH   2  19
ATOM     19  O2  UNK     1      42.359  12.609  -2.205  1.00  0.00    -0.360 OA
ATOM     20  H11 UNK     1      42.108  12.472  -3.133  1.00  0.00     0.217 HD
ENDBRANCH   2  19
BRANCH   3  21
ATOM     21  O3  UNK     1      37.949  13.723  -0.672  1.00  0.00    -0.360 OA
ATOM     22  H12 UNK     1      38.099  14.547  -0.178  1.00  0.00     0.217 HD
ENDBRANCH   3  21
BRANCH   6  23
ATOM     23  O4  UNK     1      40.342  10.115   1.316  1.00  0.00    -0.361 OA
ATOM     24  H13 UNK     1      40.692  10.467   2.153  1.00  0.00     0.217 HD
ENDBRANCH   6  23
TORSDOF 8
ENDMDL
MODEL 8
REMARK VINA RESULT:      -8.1      2.083      7.051
REMARK  8 active torsions:
REMARK  status: ('A' for Active; 'I' for Inactive)
REMARK    1  A    between atoms: O2_2  and  C8_13 
REMARK    2  A    between atoms: O3_3  and  C9_14 
REMARK    3  A    between atoms: O4_4  and  C14_19 
REMARK    4  A    between atoms: O5_5  and  C15_20 
REMARK    5  A    between atoms: C1_6  and  C2_7 
REMARK    6  A    between atoms: C1_6  and  C3_8 
REMARK    7  A    between atoms: C2_7  and  C4_9 
REMARK    8  A    between atoms: C4_9  and  C5_10 
ROOT
ATOM      1  C5  UNK     1      39.841  16.742  -2.125  1.00  0.00     0.076 A 
ATOM      2  C8  UNK     1      40.185  17.909  -2.806  1.00  0.00     0.085 A 
ATOM      3  C9  UNK     1      39.134  16.818  -0.925  1.00  0.00     0.085 A 
ATOM      4  C10 UNK     1      39.823  19.152  -2.288  1.00  0.00     0.074 A 
ATOM      5  C11 UNK     1      38.772  18.061  -0.406  1.00  0.00     0.074 A 
ATOM      6  C14 UNK     1      39.116  19.229  -1.088  1.00  0.00     0.071 A 
ENDROOT
BRANCH   1   7
ATOM      7  C4  UNK     1      40.220  15.442  -2.668  1.00  0.00     0.165 C 
ATOM      8  O1  UNK     1      39.376  14.720  -3.233  1.00  0.00    -0.292 OA
BRANCH   7   9
ATOM      9  C2  UNK     1      41.673  14.955  -2.541  1.00  0.00     0.088 C 
BRANCH   9  10
ATOM     10  C1  UNK     1      42.106  14.716  -1.093  1.00  0.00     0.046 C 
BRANCH  10  11
ATOM     11  C3  UNK     1      41.572  13.412  -0.560  1.00  0.00    -0.058 A 
ATOM     12  C6  UNK     1      41.673  12.266  -1.334  1.00  0.00     0.010 A 
ATOM     13  C12 UNK     1      41.179  11.058  -0.840  1.00  0.00     0.037 A 
ATOM     14  C15 UNK     1      40.588  11.011   0.423  1.00  0.00     0.065 A 
ATOM     15  C13 UNK     1      40.492  12.171   1.192  1.00  0.00     0.037 A 
ATOM     16  C7  UNK     1      40.987  13.378   0.698  1.00  0.00     0.010 A 
BRANCH  14  17
ATOM     17  O5  UNK     1      40.108   9.833   0.905  1.00  0.00    -0.361 OA
ATOM     18  H14 UNK     1      40.110   9.865   1.877  1.00  0.00     0.217 HD
ENDBRANCH  14  17
ENDBRANCH  10  11
ENDBRANCH   9  10
ENDBRANCH   7   9
ENDBRANCH   1   7
BRANCH   2  19
ATOM     19  O2  UNK     1      40.875  17.858  -3.981  1.00  0.00    -0.360 OA
ATOM     20  H11 UNK     1      41.375  18.678  -4.121  1.00  0.00     0.217 HD
ENDBRANCH   2  19
BRANCH   3  21
ATOM     21  O3  UNK     1      38.787  15.690  -0.243  1.00  0.00    -0.360 OA
ATOM     22  H12 UNK     1      38.417  15.941   0.621  1.00  0.00     0.217 HD
ENDBRANCH   3  21
BRANCH   6  23
ATOM     23  O4  UNK     1      38.763  20.441  -0.582  1.00  0.00    -0.361 OA
ATOM     24  H13 UNK     1      39.242  20.586   0.253  1.00  0.00     0.217 HD
ENDBRANCH   6  23
TORSDOF 8
ENDMDL
MODEL 9
REMARK VINA RESULT:      -8.1      2.092      7.007
REMARK  8 active torsions:
REMARK  status: ('A' for Active; 'I' for Inactive)
REMARK    1  A    between atoms: O2_2  and  C8_13 
REMARK    2  A    between atoms: O3_3  and  C9_14 
REMARK    3  A    between atoms: O4_4  and  C14_19 
REMARK    4  A    between atoms: O5_5  and  C15_20 
REMARK    5  A    between atoms: C1_6  and  C2_7 
REMARK    6  A    between atoms: C1_6  and  C3_8 
REMARK    7  A    between atoms: C2_7  and  C4_9 
REMARK    8  A    between atoms: C4_9  and  C5_10 
ROOT
ATOM      1  C5  UNK     1      39.826  16.734  -2.134  1.00  0.00     0.076 A 
ATOM      2  C8  UNK     1      40.160  17.907  -2.811  1.00  0.00     0.085 A 
ATOM      3  C9  UNK     1      39.125  16.799  -0.930  1.00  0.00     0.085 A 
ATOM      4  C10 UNK     1      39.794  19.145  -2.283  1.00  0.00     0.074 A 
ATOM      5  C11 UNK     1      38.759  18.037  -0.402  1.00  0.00     0.074 A 
ATOM      6  C14 UNK     1      39.094  19.211  -1.078  1.00  0.00     0.071 A 
ENDROOT
BRANCH   1   7
ATOM      7  C4  UNK     1      40.209  15.440  -2.688  1.00  0.00     0.165 C 
ATOM      8  O1  UNK     1      39.366  14.718  -3.256  1.00  0.00    -0.292 OA
BRANCH   7   9
ATOM      9  C2  UNK     1      41.664  14.957  -2.568  1.00  0.00     0.088 C 
BRANCH   9  10
ATOM     10  C1  UNK     1      42.107  14.727  -1.121  1.00  0.00     0.046 C 
BRANCH  10  11
ATOM     11  C3  UNK     1      41.584  13.421  -0.580  1.00  0.00    -0.058 A 
ATOM     12  C6  UNK     1      41.016  13.386   0.684  1.00  0.00     0.010 A 
ATOM     13  C12 UNK     1      40.532  12.177   1.186  1.00  0.00     0.037 A 
ATOM     14  C15 UNK     1      40.624  11.016   0.416  1.00  0.00     0.065 A 
ATOM     15  C13 UNK     1      41.199  11.065  -0.854  1.00  0.00     0.037 A 
ATOM     16  C7  UNK     1      41.682  12.274  -1.355  1.00  0.00     0.010 A 
BRANCH  14  17
ATOM     17  O5  UNK     1      40.151   9.838   0.904  1.00  0.00    -0.361 OA
ATOM     18  H14 UNK     1      40.501   9.109   0.365  1.00  0.00     0.217 HD
ENDBRANCH  14  17
ENDBRANCH  10  11
ENDBRANCH   9  10
ENDBRANCH   7   9
ENDBRANCH   1   7
BRANCH   2  19
ATOM     19  O2  UNK     1      40.844  17.867  -3.989  1.00  0.00    -0.360 OA
ATOM     20  H11 UNK     1      40.891  18.750  -4.389  1.00  0.00     0.217 HD
ENDBRANCH   2  19
BRANCH   3  21
ATOM     21  O3  UNK     1      38.788  15.665  -0.253  1.00  0.00    -0.360 OA
ATOM     22  H12 UNK     1      39.496  15.449   0.379  1.00  0.00     0.217 HD
ENDBRANCH   3  21
BRANCH   6  23
ATOM     23  O4  UNK     1      38.737  20.418  -0.563  1.00  0.00    -0.361 OA
ATOM     24  H13 UNK     1      38.908  20.415   0.395  1.00  0.00     0.217 HD
ENDBRANCH   6  23
TORSDOF 8
ENDMDL
MODEL 10
REMARK VINA RESULT:      -8.1      2.093      7.095
REMARK  8 active torsions:
REMARK  status: ('A' for Active; 'I' for Inactive)
REMARK    1  A    between atoms: O2_2  and  C8_13 
REMARK    2  A    between atoms: O3_3  and  C9_14 
REMARK    3  A    between atoms: O4_4  and  C14_19 
REMARK    4  A    between atoms: O5_5  and  C15_20 
REMARK    5  A    between atoms: C1_6  and  C2_7 
REMARK    6  A    between atoms: C1_6  and  C3_8 
REMARK    7  A    between atoms: C2_7  and  C4_9 
REMARK    8  A    between atoms: C4_9  and  C5_10 
ROOT
ATOM      1  C5  UNK     1      39.817  16.731  -2.135  1.00  0.00     0.076 A 
ATOM      2  C8  UNK     1      39.117  16.796  -0.931  1.00  0.00     0.085 A 
ATOM      3  C9  UNK     1      40.156  17.904  -2.809  1.00  0.00     0.085 A 
ATOM      4  C10 UNK     1      38.755  18.034  -0.401  1.00  0.00     0.074 A 
ATOM      5  C11 UNK     1      39.794  19.143  -2.279  1.00  0.00     0.074 A 
ATOM      6  C14 UNK     1      39.093  19.208  -1.074  1.00  0.00     0.071 A 
ENDROOT
BRANCH   1   7
ATOM      7  C4  UNK     1      40.196  15.436  -2.688  1.00  0.00     0.165 C 
ATOM      8  O1  UNK     1      39.350  14.713  -3.250  1.00  0.00    -0.292 OA
BRANCH   7   9
ATOM      9  C2  UNK     1      41.652  14.953  -2.577  1.00  0.00     0.088 C 
BRANCH   9  10
ATOM     10  C1  UNK     1      42.105  14.725  -1.133  1.00  0.00     0.046 C 
BRANCH  10  11
ATOM     11  C3  UNK     1      41.587  13.419  -0.587  1.00  0.00    -0.058 A 
ATOM     12  C6  UNK     1      41.015  13.388   0.675  1.00  0.00     0.010 A 
ATOM     13  C12 UNK     1      40.535  12.179   1.181  1.00  0.00     0.037 A 
ATOM     14  C15 UNK     1      40.637  11.014   0.418  1.00  0.00     0.065 A 
ATOM     15  C13 UNK     1      41.216  11.060  -0.850  1.00  0.00     0.037 A 
ATOM     16  C7  UNK     1      41.694  12.269  -1.356  1.00  0.00     0.010 A 
BRANCH  14  17
ATOM     17  O5  UNK     1      40.169   9.836   0.911  1.00  0.00    -0.361 OA
ATOM     18  H14 UNK     1      40.667   9.610   1.714  1.00  0.00     0.217 HD
ENDBRANCH  14  17
ENDBRANCH  10  11
ENDBRANCH   9  10
ENDBRANCH   7   9
ENDBRANCH   1   7
BRANCH   2  19
ATOM     19  O2  UNK     1      38.776  15.662  -0.255  1.00  0.00    -0.360 OA
ATOM     20  H11 UNK     1      38.045  15.204  -0.701  1.00  0.00     0.217 HD
ENDBRANCH   2  19
BRANCH   3  21
ATOM     21  O3  UNK     1      40.841  17.863  -3.987  1.00  0.00    -0.360 OA
ATOM     22  H12 UNK     1      41.439  17.095  -3.981  1.00  0.00     0.217 HD
ENDBRANCH   3  21
BRANCH   6  23
ATOM     23  O4  UNK     1      38.739  20.416  -0.558  1.00  0.00    -0.361 OA
ATOM     24  H13 UNK     1      39.069  20.477   0.355  1.00  0.00     0.217 HD
ENDBRANCH   6  23
TORSDOF 8
ENDMDL
MODEL 11
REMARK VINA RESULT:      -8.0      3.422      7.482
REMARK  8 active torsions:
REMARK  status: ('A' for Active; 'I' for Inactive)
REMARK    1  A    between atoms: O2_2  and  C8_13 
REMARK    2  A    between atoms: O3_3  and  C9_14 
REMARK    3  A    between atoms: O4_4  and  C14_19 
REMARK    4  A    between atoms: O5_5  and  C15_20 
REMARK    5  A    between atoms: C1_6  and  C2_7 
REMARK    6  A    between atoms: C1_6  and  C3_8 
REMARK    7  A    between atoms: C2_7  and  C4_9 
REMARK    8  A    between atoms: C4_9  and  C5_10 
ROOT
ATOM      1  C5  UNK     1      40.218  13.739  -1.170  1.00  0.00     0.076 A 
ATOM      2  C8  UNK     1      38.832  13.682  -1.028  1.00  0.00     0.085 A 
ATOM      3  C9  UNK     1      40.867  14.974  -1.179  1.00  0.00     0.085 A 
ATOM      4  C10 UNK     1      38.095  14.858  -0.895  1.00  0.00     0.074 A 
ATOM      5  C11 UNK     1      40.131  16.150  -1.046  1.00  0.00     0.074 A 
ATOM      6  C14 UNK     1      38.744  16.093  -0.904  1.00  0.00     0.071 A 
ENDROOT
BRANCH   1   7
ATOM      7  C4  UNK     1      40.988  12.508  -1.309  1.00  0.00     0.165 C 
ATOM      8  O1  UNK     1      41.523  12.212  -2.395  1.00  0.00    -0.292 OA
BRANCH   7   9
ATOM      9  C2  UNK     1      41.140  11.562  -0.105  1.00  0.00     0.088 C 
BRANCH   9  10
ATOM     10  C1  UNK     1      41.464  12.292   1.200  1.00  0.00     0.046 C 
BRANCH  10  11
ATOM     11  C3  UNK     1      40.589  11.821   2.333  1.00  0.00    -0.058 A 
ATOM     12  C6  UNK     1      40.366  12.658   3.415  1.00  0.00     0.010 A 
ATOM     13  C12 UNK     1      39.555  12.223   4.464  1.00  0.00     0.037 A 
ATOM     14  C15 UNK     1      38.979  10.953   4.419  1.00  0.00     0.065 A 
ATOM     15  C13 UNK     1      39.212  10.120   3.324  1.00  0.00     0.037 A 
ATOM     16  C7  UNK     1      40.021  10.556   2.276  1.00  0.00     0.010 A 
BRANCH  14  17
ATOM     17  O5  UNK     1      38.188  10.528   5.441  1.00  0.00    -0.361 OA
ATOM     18  H14 UNK     1      37.640   9.788   5.130  1.00  0.00     0.217 HD
ENDBRANCH  14  17
ENDBRANCH  10  11
ENDBRANCH   9  10
ENDBRANCH   7   9
ENDBRANCH   1   7
BRANCH   2  19
ATOM     19  O2  UNK     1      38.177  12.486  -1.017  1.00  0.00    -0.360 OA
ATOM     20  H11 UNK     1      37.308  12.575  -0.593  1.00  0.00     0.217 HD
ENDBRANCH   2  19
BRANCH   3  21
ATOM     21  O3  UNK     1      42.222  15.052  -1.315  1.00  0.00    -0.360 OA
ATOM     22  H12 UNK     1      42.498  15.980  -1.223  1.00  0.00     0.217 HD
ENDBRANCH   3  21
BRANCH   6  23
ATOM     23  O4  UNK     1      38.026  17.241  -0.775  1.00  0.00    -0.361 OA
ATOM     24  H13 UNK     1      38.195  17.622   0.104  1.00  0.00     0.217 HD
ENDBRANCH   6  23
TORSDOF 8
ENDMDL
MODEL 12
REMARK VINA RESULT:      -8.0      1.662      7.617
REMARK  8 active torsions:
REMARK  status: ('A' for Active; 'I' for Inactive)
REMARK    1  A    between atoms: O2_2  and  C8_13 
REMARK    2  A    between atoms: O3_3  and  C9_14 
REMARK    3  A    between atoms: O4_4  and  C14_19 
REMARK    4  A    between atoms: O5_5  and  C15_20 
REMARK    5  A    between atoms: C1_6  and  C2_7 
REMARK    6  A    between atoms: C1_6  and  C3_8 
REMARK    7  A    between atoms: C2_7  and  C4_9 
REMARK    8  A    between atoms: C4_9  and  C5_10 
ROOT
ATOM      1  C5  UNK     1      39.089  18.182  -0.724  1.00  0.00     0.076 A 
ATOM      2  C8  UNK     1      38.424  18.774   0.350  1.00  0.00     0.085 A 
ATOM      3  C9  UNK     1      39.738  18.980  -1.667  1.00  0.00     0.085 A 
ATOM      4  C10 UNK     1      38.407  20.163   0.481  1.00  0.00     0.074 A 
ATOM      5  C11 UNK     1      39.722  20.368  -1.536  1.00  0.00     0.074 A 
ATOM      6  C14 UNK     1      39.056  20.960  -0.462  1.00  0.00     0.071 A 
ENDROOT
BRANCH   1   7
ATOM      7  C4  UNK     1      39.106  16.730  -0.859  1.00  0.00     0.165 C 
ATOM      8  O1  UNK     1      38.042  16.090  -0.964  1.00  0.00    -0.292 OA
BRANCH   7   9
ATOM      9  C2  UNK     1      40.448  15.979  -0.871  1.00  0.00     0.088 C 
BRANCH   9  10
ATOM     10  C1  UNK     1      40.461  14.780  -1.821  1.00  0.00     0.046 C 
BRANCH  10  11
ATOM     11  C3  UNK     1      40.589  13.478  -1.072  1.00  0.00    -0.058 A 
ATOM     12  C6  UNK     1      41.323  12.441  -1.628  1.00  0.00     0.010 A 
ATOM     13  C12 UNK     1      41.442  11.236  -0.935  1.00  0.00     0.037 A 
ATOM     14  C15 UNK     1      40.824  11.082   0.306  1.00  0.00     0.065 A 
ATOM     15  C13 UNK     1      40.088  12.133   0.855  1.00  0.00     0.037 A 
ATOM     16  C7  UNK     1      39.970  13.337   0.162  1.00  0.00     0.010 A 
BRANCH  14  17
ATOM     17  O5  UNK     1      40.941   9.907   0.983  1.00  0.00    -0.361 OA
ATOM     18  H14 UNK     1      41.251  10.092   1.885  1.00  0.00     0.217 HD
ENDBRANCH  14  17
ENDBRANCH  10  11
ENDBRANCH   9  10
ENDBRANCH   7   9
ENDBRANCH   1   7
BRANCH   2  19
ATOM     19  O2  UNK     1      37.783  18.014   1.283  1.00  0.00    -0.360 OA
ATOM     20  H11 UNK     1      36.988  17.606   0.905  1.00  0.00     0.217 HD
ENDBRANCH   2  19
BRANCH   3  21
ATOM     21  O3  UNK     1      40.395  18.421  -2.723  1.00  0.00    -0.360 OA
ATOM     22  H12 UNK     1      39.745  18.015  -3.323  1.00  0.00     0.217 HD
ENDBRANCH   3  21
BRANCH   6  23
ATOM     23  O4  UNK     1      39.040  22.315  -0.336  1.00  0.00    -0.361 OA
ATOM     24  H13 UNK     1      38.697  22.545   0.545  1.00  0.00     0.217 HD
ENDBRANCH   6  23
TORSDOF 8
ENDMDL
MODEL 13
REMARK VINA RESULT:      -8.0      1.662      7.518
REMARK  8 active torsions:
REMARK  status: ('A' for Active; 'I' for Inactive)
REMARK    1  A    between atoms: O2_2  and  C8_13 
REMARK    2  A    between atoms: O3_3  and  C9_14 
REMARK    3  A    between atoms: O4_4  and  C14_19 
REMARK    4  A    between atoms: O5_5  and  C15_20 
REMARK    5  A    between atoms: C1_6  and  C2_7 
REMARK    6  A    between atoms: C1_6  and  C3_8 
REMARK    7  A    between atoms: C2_7  and  C4_9 
REMARK    8  A    between atoms: C4_9  and  C5_10 
ROOT
ATOM      1  C5  UNK     1      39.089  18.181  -0.722  1.00  0.00     0.076 A 
ATOM      2  C8  UNK     1      39.738  18.978  -1.666  1.00  0.00     0.085 A 
ATOM      3  C9  UNK     1      38.424  18.774   0.351  1.00  0.00     0.085 A 
ATOM      4  C10 UNK     1      39.722  20.367  -1.536  1.00  0.00     0.074 A 
ATOM      5  C11 UNK     1      38.407  20.162   0.481  1.00  0.00     0.074 A 
ATOM      6  C14 UNK     1      39.057  20.959  -0.463  1.00  0.00     0.071 A 
ENDROOT
BRANCH   1   7
ATOM      7  C4  UNK     1      39.106  16.729  -0.860  1.00  0.00     0.165 C 
ATOM      8  O1  UNK     1      38.042  16.089  -0.965  1.00  0.00    -0.292 OA
BRANCH   7   9
ATOM      9  C2  UNK     1      40.448  15.978  -0.872  1.00  0.00     0.088 C 
BRANCH   9  10
ATOM     10  C1  UNK     1      40.460  14.778  -1.821  1.00  0.00     0.046 C 
BRANCH  10  11
ATOM     11  C3  UNK     1      40.588  13.477  -1.071  1.00  0.00    -0.058 A 
ATOM     12  C6  UNK     1      41.321  12.439  -1.627  1.00  0.00     0.010 A 
ATOM     13  C12 UNK     1      41.440  11.234  -0.933  1.00  0.00     0.037 A 
ATOM     14  C15 UNK     1      40.822  11.081   0.309  1.00  0.00     0.065 A 
ATOM     15  C13 UNK     1      40.088  12.133   0.857  1.00  0.00     0.037 A 
ATOM     16  C7  UNK     1      39.970  13.337   0.163  1.00  0.00     0.010 A 
BRANCH  14  17
ATOM     17  O5  UNK     1      40.940   9.907   0.986  1.00  0.00    -0.361 OA
ATOM     18  H14 UNK     1      40.219   9.844   1.635  1.00  0.00     0.217 HD
ENDBRANCH  14  17
ENDBRANCH  10  11
ENDBRANCH   9  10
ENDBRANCH   7   9
ENDBRANCH   1   7
BRANCH   2  19
ATOM     19  O2  UNK     1      40.394  18.420  -2.723  1.00  0.00    -0.360 OA
ATOM     20  H11 UNK     1      41.252  18.062  -2.443  1.00  0.00     0.217 HD
ENDBRANCH   2  19
BRANCH   3  21
ATOM     21  O3  UNK     1      37.782  18.014   1.284  1.00  0.00    -0.360 OA
ATOM     22  H12 UNK     1      38.209  17.141   1.330  1.00  0.00     0.217 HD
ENDBRANCH   3  21
BRANCH   6  23
ATOM     23  O4  UNK     1      39.041  22.314  -0.335  1.00  0.00    -0.361 OA
ATOM     24  H13 UNK     1      38.980  22.541   0.609  1.00  0.00     0.217 HD
ENDBRANCH   6  23
TORSDOF 8
ENDMDL
MODEL 14
REMARK VINA RESULT:      -8.0      3.445      7.288
REMARK  8 active torsions:
REMARK  status: ('A' for Active; 'I' for Inactive)
REMARK    1  A    between atoms: O2_2  and  C8_13 
REMARK    2  A    between atoms: O3_3  and  C9_14 
REMARK    3  A    between atoms: O4_4  and  C14_19 
REMARK    4  A    between atoms: O5_5  and  C15_20 
REMARK    5  A    between atoms: C1_6  and  C2_7 
REMARK    6  A    between atoms: C1_6  and  C3_8 
REMARK    7  A    between atoms: C2_7  and  C4_9 
REMARK    8  A    between atoms: C4_9  and  C5_10 
ROOT
ATOM      1  C5  UNK     1      40.226  13.700  -1.161  1.00  0.00     0.076 A 
ATOM      2  C8  UNK     1      40.868  14.938  -1.194  1.00  0.00     0.085 A 
ATOM      3  C9  UNK     1      38.842  13.636  -1.005  1.00  0.00     0.085 A 
ATOM      4  C10 UNK     1      40.126  16.112  -1.070  1.00  0.00     0.074 A 
ATOM      5  C11 UNK     1      38.099  14.810  -0.881  1.00  0.00     0.074 A 
ATOM      6  C14 UNK     1      38.741  16.049  -0.914  1.00  0.00     0.071 A 
ENDROOT
BRANCH   1   7
ATOM      7  C4  UNK     1      41.004  12.473  -1.291  1.00  0.00     0.165 C 
ATOM      8  O1  UNK     1      41.547  12.176  -2.373  1.00  0.00    -0.292 OA
BRANCH   7   9
ATOM      9  C2  UNK     1      41.154  11.531  -0.084  1.00  0.00     0.088 C 
BRANCH   9  10
ATOM     10  C1  UNK     1      41.472  12.267   1.220  1.00  0.00     0.046 C 
BRANCH  10  11
ATOM     11  C3  UNK     1      40.588  11.804   2.350  1.00  0.00    -0.058 A 
ATOM     12  C6  UNK     1      40.323  12.665   3.404  1.00  0.00     0.010 A 
ATOM     13  C12 UNK     1      39.504  12.237   4.450  1.00  0.00     0.037 A 
ATOM     14  C15 UNK     1      38.962  10.951   4.430  1.00  0.00     0.065 A 
ATOM     15  C13 UNK     1      39.238  10.095   3.363  1.00  0.00     0.037 A 
ATOM     16  C7  UNK     1      40.055  10.524   2.318  1.00  0.00     0.010 A 
BRANCH  14  17
ATOM     17  O5  UNK     1      38.163  10.534   5.448  1.00  0.00    -0.361 OA
ATOM     18  H14 UNK     1      37.502  11.223   5.633  1.00  0.00     0.217 HD
ENDBRANCH  14  17
ENDBRANCH  10  11
ENDBRANCH   9  10
ENDBRANCH   7   9
ENDBRANCH   1   7
BRANCH   2  19
ATOM     19  O2  UNK     1      42.220  15.023  -1.346  1.00  0.00    -0.360 OA
ATOM     20  H11 UNK     1      42.489  15.941  -1.510  1.00  0.00     0.217 HD
ENDBRANCH   2  19
BRANCH   3  21
ATOM     21  O3  UNK     1      38.195  12.436  -0.971  1.00  0.00    -0.360 OA
ATOM     22  H12 UNK     1      37.242  12.592  -0.851  1.00  0.00     0.217 HD
ENDBRANCH   3  21
BRANCH   6  23
ATOM     23  O4  UNK     1      38.016  17.194  -0.792  1.00  0.00    -0.361 OA
ATOM     24  H13 UNK     1      37.987  17.450   0.145  1.00  0.00     0.217 HD
ENDBRANCH   6  23
TORSDOF 8
ENDMDL
MODEL 15
REMARK VINA RESULT:      -7.7      1.650      7.482
REMARK  8 active torsions:
REMARK  status: ('A' for Active; 'I' for Inactive)
REMARK    1  A    between atoms: O2_2  and  C8_13 
REMARK    2  A    between atoms: O3_3  and  C9_14 
REMARK    3  A    between atoms: O4_4  and  C14_19 
REMARK    4  A    between atoms: O5_5  and  C15_20 
REMARK    5  A    between atoms: C1_6  and  C2_7 
REMARK    6  A    between atoms: C1_6  and  C3_8 
REMARK    7  A    between atoms: C2_7  and  C4_9 
REMARK    8  A    between atoms: C4_9  and  C5_10 
ROOT
ATOM      1  C5  UNK     1      39.491  19.603  -1.116  1.00  0.00     0.076 A 
ATOM      2  C8  UNK     1      38.746  19.437   0.051  1.00  0.00     0.085 A 
ATOM      3  C9  UNK     1      40.067  20.841  -1.404  1.00  0.00     0.085 A 
ATOM      4  C10 UNK     1      38.576  20.507   0.929  1.00  0.00     0.074 A 
ATOM      5  C11 UNK     1      39.898  21.911  -0.527  1.00  0.00     0.074 A 
ATOM      6  C14 UNK     1      39.151  21.744   0.641  1.00  0.00     0.071 A 
ENDROOT
BRANCH   1   7
ATOM      7  C4  UNK     1      39.669  18.483  -2.033  1.00  0.00     0.165 C 
ATOM      8  O1  UNK     1      39.680  18.668  -3.266  1.00  0.00    -0.292 OA
BRANCH   7   9
ATOM      9  C2  UNK     1      39.840  17.059  -1.477  1.00  0.00     0.088 C 
BRANCH   9  10
ATOM     10  C1  UNK     1      40.343  16.060  -2.521  1.00  0.00     0.046 C 
BRANCH  10  11
ATOM     11  C3  UNK     1      40.516  14.682  -1.935  1.00  0.00    -0.058 A 
ATOM     12  C6  UNK     1      39.433  14.053  -1.341  1.00  0.00     0.010 A 
ATOM     13  C12 UNK     1      39.593  12.777  -0.799  1.00  0.00     0.037 A 
ATOM     14  C15 UNK     1      40.837  12.147  -0.856  1.00  0.00     0.065 A 
ATOM     15  C13 UNK     1      41.919  12.791  -1.456  1.00  0.00     0.037 A 
ATOM     16  C7  UNK     1      41.758  14.066  -1.998  1.00  0.00     0.010 A 
BRANCH  14  17
ATOM     17  O5  UNK     1      40.993  10.903  -0.329  1.00  0.00    -0.361 OA
ATOM     18  H14 UNK     1      40.279  10.739   0.310  1.00  0.00     0.217 HD
ENDBRANCH  14  17
ENDBRANCH  10  11
ENDBRANCH   9  10
ENDBRANCH   7   9
ENDBRANCH   1   7
BRANCH   2  19
ATOM     19  O2  UNK     1      38.175  18.236   0.353  1.00  0.00    -0.360 OA
ATOM     20  H11 UNK     1      37.213  18.328   0.445  1.00  0.00     0.217 HD
ENDBRANCH   2  19
BRANCH   3  21
ATOM     21  O3  UNK     1      40.800  21.025  -2.539  1.00  0.00    -0.360 OA
ATOM     22  H12 UNK     1      40.764  21.963  -2.792  1.00  0.00     0.217 HD
ENDBRANCH   3  21
BRANCH   6  23
ATOM     23  O4  UNK     1      38.986  22.789   1.497  1.00  0.00    -0.361 OA
ATOM     24  H13 UNK     1      38.990  23.617   0.987  1.00  0.00     0.217 HD
ENDBRANCH   6  23
TORSDOF 8
ENDMDL
MODEL 16
REMARK VINA RESULT:      -7.7      1.648      7.366
REMARK  8 active torsions:
REMARK  status: ('A' for Active; 'I' for Inactive)
REMARK    1  A    between atoms: O2_2  and  C8_13 
REMARK    2  A    between atoms: O3_3  and  C9_14 
REMARK    3  A    between atoms: O4_4  and  C14_19 
REMARK    4  A    between atoms: O5_5  and  C15_20 
REMARK    5  A    between atoms: C1_6  and  C2_7 
REMARK    6  A    between atoms: C1_6  and  C3_8 
REMARK    7  A    between atoms: C2_7  and  C4_9 
REMARK    8  A    between atoms: C4_9  and  C5_10 
ROOT
ATOM      1  C5  UNK     1      39.482  19.596  -1.106  1.00  0.00     0.076 A 
ATOM      2  C8  UNK     1      40.058  20.832  -1.399  1.00  0.00     0.085 A 
ATOM      3  C9  UNK     1      38.734  19.435   0.060  1.00  0.00     0.085 A 
ATOM      4  C10 UNK     1      39.887  21.906  -0.526  1.00  0.00     0.074 A 
ATOM      5  C11 UNK     1      38.562  20.508   0.933  1.00  0.00     0.074 A 
ATOM      6  C14 UNK     1      39.139  21.745   0.640  1.00  0.00     0.071 A 
ENDROOT
BRANCH   1   7
ATOM      7  C4  UNK     1      39.661  18.474  -2.020  1.00  0.00     0.165 C 
ATOM      8  O1  UNK     1      39.666  18.654  -3.253  1.00  0.00    -0.292 OA
BRANCH   7   9
ATOM      9  C2  UNK     1      39.844  17.053  -1.460  1.00  0.00     0.088 C 
BRANCH   9  10
ATOM     10  C1  UNK     1      40.334  16.050  -2.506  1.00  0.00     0.046 C 
BRANCH  10  11
ATOM     11  C3  UNK     1      40.507  14.673  -1.918  1.00  0.00    -0.058 A 
ATOM     12  C6  UNK     1      39.425  14.047  -1.318  1.00  0.00     0.010 A 
ATOM     13  C12 UNK     1      39.586  12.771  -0.775  1.00  0.00     0.037 A 
ATOM     14  C15 UNK     1      40.828  12.138  -0.837  1.00  0.00     0.065 A 
ATOM     15  C13 UNK     1      41.908  12.779  -1.443  1.00  0.00     0.037 A 
ATOM     16  C7  UNK     1      41.747  14.054  -1.987  1.00  0.00     0.010 A 
BRANCH  14  17
ATOM     17  O5  UNK     1      40.983  10.894  -0.308  1.00  0.00    -0.361 OA
ATOM     18  H14 UNK     1      40.536  10.860   0.554  1.00  0.00     0.217 HD
ENDBRANCH  14  17
ENDBRANCH  10  11
ENDBRANCH   9  10
ENDBRANCH   7   9
ENDBRANCH   1   7
BRANCH   2  19
ATOM     19  O2  UNK     1      40.793  21.012  -2.533  1.00  0.00    -0.360 OA
ATOM     20  H11 UNK     1      40.441  20.472  -3.259  1.00  0.00     0.217 HD
ENDBRANCH   2  19
BRANCH   3  21
ATOM     21  O3  UNK     1      38.161  18.236   0.365  1.00  0.00    -0.360 OA
ATOM     22  H12 UNK     1      38.742  17.518   0.057  1.00  0.00     0.217 HD
ENDBRANCH   3  21
BRANCH   6  23
ATOM     23  O4  UNK     1      38.972  22.792   1.492  1.00  0.00    -0.361 OA
ATOM     24  H13 UNK     1      38.081  23.163   1.366  1.00  0.00     0.217 HD
ENDBRANCH   6  23
TORSDOF 8
ENDMDL
MODEL 17
REMARK VINA RESULT:      -7.7      1.801      7.599
REMARK  8 active torsions:
REMARK  status: ('A' for Active; 'I' for Inactive)
REMARK    1  A    between atoms: O2_2  and  C8_13 
REMARK    2  A    between atoms: O3_3  and  C9_14 
REMARK    3  A    between atoms: O4_4  and  C14_19 
REMARK    4  A    between atoms: O5_5  and  C15_20 
REMARK    5  A    between atoms: C1_6  and  C2_7 
REMARK    6  A    between atoms: C1_6  and  C3_8 
REMARK    7  A    between atoms: C2_7  and  C4_9 
REMARK    8  A    between atoms: C4_9  and  C5_10 
ROOT
ATOM      1  C5  UNK     1      39.261  20.249  -0.608  1.00  0.00     0.076 A 
ATOM      2  C8  UNK     1      40.075  20.968  -1.484  1.00  0.00     0.085 A 
ATOM      3  C9  UNK     1      38.825  20.837   0.579  1.00  0.00     0.085 A 
ATOM      4  C10 UNK     1      40.453  22.273  -1.172  1.00  0.00     0.074 A 
ATOM      5  C11 UNK     1      39.202  22.142   0.892  1.00  0.00     0.074 A 
ATOM      6  C14 UNK     1      40.017  22.861   0.016  1.00  0.00     0.071 A 
ENDROOT
BRANCH   1   7
ATOM      7  C4  UNK     1      38.865  18.884  -0.936  1.00  0.00     0.165 C 
ATOM      8  O1  UNK     1      37.691  18.624  -1.263  1.00  0.00    -0.292 OA
BRANCH   7   9
ATOM      9  C2  UNK     1      39.905  17.751  -0.874  1.00  0.00     0.088 C 
BRANCH   9  10
ATOM     10  C1  UNK     1      39.985  16.935  -2.166  1.00  0.00     0.046 C 
BRANCH  10  11
ATOM     11  C3  UNK     1      40.278  15.483  -1.889  1.00  0.00    -0.058 A 
ATOM     12  C6  UNK     1      39.264  14.658  -1.428  1.00  0.00     0.010 A 
ATOM     13  C12 UNK     1      39.536  13.313  -1.172  1.00  0.00     0.037 A 
ATOM     14  C15 UNK     1      40.821  12.810  -1.380  1.00  0.00     0.065 A 
ATOM     15  C13 UNK     1      41.833  13.651  -1.844  1.00  0.00     0.037 A 
ATOM     16  C7  UNK     1      41.560  14.994  -2.100  1.00  0.00     0.010 A 
BRANCH  14  17
ATOM     17  O5  UNK     1      41.085  11.499  -1.132  1.00  0.00    -0.361 OA
ATOM     18  H14 UNK     1      41.543  11.118  -1.901  1.00  0.00     0.217 HD
ENDBRANCH  14  17
ENDBRANCH  10  11
ENDBRANCH   9  10
ENDBRANCH   7   9
ENDBRANCH   1   7
BRANCH   2  19
ATOM     19  O2  UNK     1      40.512  20.413  -2.650  1.00  0.00    -0.360 OA
ATOM     20  H11 UNK     1      41.100  19.662  -2.472  1.00  0.00     0.217 HD
ENDBRANCH   2  19
BRANCH   3  21
ATOM     21  O3  UNK     1      38.028  20.152   1.449  1.00  0.00    -0.360 OA
ATOM     22  H12 UNK     1      38.377  20.257   2.350  1.00  0.00     0.217 HD
ENDBRANCH   3  21
BRANCH   6  23
ATOM     23  O4  UNK     1      40.386  24.135   0.321  1.00  0.00    -0.361 OA
ATOM     24  H13 UNK     1      40.563  24.618  -0.505  1.00  0.00     0.217 HD
ENDBRANCH   6  23
TORSDOF 8
ENDMDL
MODEL 18
REMARK VINA RESULT:      -7.1      3.430      6.901
REMARK  8 active torsions:
REMARK  status: ('A' for Active; 'I' for Inactive)
REMARK    1  A    between atoms: O2_2  and  C8_13 
REMARK    2  A    between atoms: O3_3  and  C9_14 
REMARK    3  A    between atoms: O4_4  and  C14_19 
REMARK    4  A    between atoms: O5_5  and  C15_20 
REMARK    5  A    between atoms: C1_6  and  C2_7 
REMARK    6  A    between atoms: C1_6  and  C3_8 
REMARK    7  A    between atoms: C2_7  and  C4_9 
REMARK    8  A    between atoms: C4_9  and  C5_10 
ROOT
ATOM      1  C5  UNK     1      40.141  14.969  -1.491  1.00  0.00     0.076 A 
ATOM      2  C8  UNK     1      39.289  13.957  -1.932  1.00  0.00     0.085 A 
ATOM      3  C9  UNK     1      39.612  16.116  -0.899  1.00  0.00     0.085 A 
ATOM      4  C10 UNK     1      37.909  14.091  -1.784  1.00  0.00     0.074 A 
ATOM      5  C11 UNK     1      38.232  16.252  -0.750  1.00  0.00     0.074 A 
ATOM      6  C14 UNK     1      37.380  15.239  -1.192  1.00  0.00     0.071 A 
ENDROOT
BRANCH   1   7
ATOM      7  C4  UNK     1      41.584  14.827  -1.646  1.00  0.00     0.165 C 
ATOM      8  O1  UNK     1      42.173  15.348  -2.614  1.00  0.00    -0.292 OA
BRANCH   7   9
ATOM      9  C2  UNK     1      42.390  14.025  -0.611  1.00  0.00     0.088 C 
BRANCH   9  10
ATOM     10  C1  UNK     1      42.193  12.512  -0.732  1.00  0.00     0.046 C 
BRANCH  10  11
ATOM     11  C3  UNK     1      41.335  11.971   0.382  1.00  0.00    -0.058 A 
ATOM     12  C6  UNK     1      40.895  10.657   0.327  1.00  0.00     0.010 A 
ATOM     13  C12 UNK     1      40.101  10.156   1.359  1.00  0.00     0.037 A 
ATOM     14  C15 UNK     1      39.754  10.976   2.434  1.00  0.00     0.065 A 
ATOM     15  C13 UNK     1      40.203  12.296   2.476  1.00  0.00     0.037 A 
ATOM     16  C7  UNK     1      40.997  12.797   1.445  1.00  0.00     0.010 A 
BRANCH  14  17
ATOM     17  O5  UNK     1      38.981  10.487   3.440  1.00  0.00    -0.361 OA
ATOM     18  H14 UNK     1      39.427   9.720   3.837  1.00  0.00     0.217 HD
ENDBRANCH  14  17
ENDBRANCH  10  11
ENDBRANCH   9  10
ENDBRANCH   7   9
ENDBRANCH   1   7
BRANCH   2  19
ATOM     19  O2  UNK     1      39.785  12.827  -2.513  1.00  0.00    -0.360 OA
ATOM     20  H11 UNK     1      39.320  12.637  -3.344  1.00  0.00     0.217 HD
ENDBRANCH   2  19
BRANCH   3  21
ATOM     21  O3  UNK     1      40.426  17.118  -0.460  1.00  0.00    -0.360 OA
ATOM     22  H12 UNK     1      39.911  17.940  -0.391  1.00  0.00     0.217 HD
ENDBRANCH   3  21
BRANCH   6  23
ATOM     23  O4  UNK     1      36.033  15.371  -1.047  1.00  0.00    -0.361 OA
ATOM     24  H13 UNK     1      35.631  15.479  -1.926  1.00  0.00     0.217 HD
ENDBRANCH   6  23
TORSDOF 8
ENDMDL
MODEL 19
REMARK VINA RESULT:      -7.0      3.439      6.850
REMARK  8 active torsions:
REMARK  status: ('A' for Active; 'I' for Inactive)
REMARK    1  A    between atoms: O2_2  and  C8_13 
REMARK    2  A    between atoms: O3_3  and  C9_14 
REMARK    3  A    between atoms: O4_4  and  C14_19 
REMARK    4  A    between atoms: O5_5  and  C15_20 
REMARK    5  A    between atoms: C1_6  and  C2_7 
REMARK    6  A    between atoms: C1_6  and  C3_8 
REMARK    7  A    between atoms: C2_7  and  C4_9 
REMARK    8  A    between atoms: C4_9  and  C5_10 
ROOT
ATOM      1  C5  UNK     1      40.118  14.955  -1.493  1.00  0.00     0.076 A 
ATOM      2  C8  UNK     1      39.589  16.101  -0.899  1.00  0.00     0.085 A 
ATOM      3  C9  UNK     1      39.266  13.941  -1.932  1.00  0.00     0.085 A 
ATOM      4  C10 UNK     1      38.210  16.233  -0.744  1.00  0.00     0.074 A 
ATOM      5  C11 UNK     1      37.887  14.073  -1.778  1.00  0.00     0.074 A 
ATOM      6  C14 UNK     1      37.358  15.220  -1.183  1.00  0.00     0.071 A 
ENDROOT
BRANCH   1   7
ATOM      7  C4  UNK     1      41.561  14.818  -1.655  1.00  0.00     0.165 C 
ATOM      8  O1  UNK     1      42.145  15.350  -2.619  1.00  0.00    -0.292 OA
BRANCH   7   9
ATOM      9  C2  UNK     1      42.372  14.007  -0.630  1.00  0.00     0.088 C 
BRANCH   9  10
ATOM     10  C1  UNK     1      42.157  12.497  -0.748  1.00  0.00     0.046 C 
BRANCH  10  11
ATOM     11  C3  UNK     1      41.309  11.965   0.378  1.00  0.00    -0.058 A 
ATOM     12  C6  UNK     1      40.940  12.811   1.412  1.00  0.00     0.010 A 
ATOM     13  C12 UNK     1      40.154  12.319   2.455  1.00  0.00     0.037 A 
ATOM     14  C15 UNK     1      39.749  10.983   2.452  1.00  0.00     0.065 A 
ATOM     15  C13 UNK     1      40.129  10.142   1.406  1.00  0.00     0.037 A 
ATOM     16  C7  UNK     1      40.913  10.635   0.363  1.00  0.00     0.010 A 
BRANCH  14  17
ATOM     17  O5  UNK     1      38.982  10.503   3.468  1.00  0.00    -0.361 OA
ATOM     18  H14 UNK     1      38.548  11.249   3.914  1.00  0.00     0.217 HD
ENDBRANCH  14  17
ENDBRANCH  10  11
ENDBRANCH   9  10
ENDBRANCH   7   9
ENDBRANCH   1   7
BRANCH   2  19
ATOM     19  O2  UNK     1      40.403  17.104  -0.463  1.00  0.00    -0.360 OA
ATOM     20  H11 UNK     1      40.250  17.916  -0.972  1.00  0.00     0.217 HD
ENDBRANCH   2  19
BRANCH   3  21
ATOM     21  O3  UNK     1      39.762  12.813  -2.516  1.00  0.00    -0.360 OA
ATOM     22  H12 UNK     1      40.713  12.745  -2.319  1.00  0.00     0.217 HD
ENDBRANCH   3  21
BRANCH   6  23
ATOM     23  O4  UNK     1      36.012  15.348  -1.031  1.00  0.00    -0.361 OA
ATOM     24  H13 UNK     1      35.714  14.741  -0.332  1.00  0.00     0.217 HD
ENDBRANCH   6  23
TORSDOF 8
ENDMDL
MODEL 20
REMARK VINA RESULT:      -6.9      2.104      3.402
REMARK  8 active torsions:
REMARK  status: ('A' for Active; 'I' for Inactive)
REMARK    1  A    between atoms: O2_2  and  C8_13 
REMARK    2  A    between atoms: O3_3  and  C9_14 
REMARK    3  A    between atoms: O4_4  and  C14_19 
REMARK    4  A    between atoms: O5_5  and  C15_20 
REMARK    5  A    between atoms: C1_6  and  C2_7 
REMARK    6  A    between atoms: C1_6  and  C3_8 
REMARK    7  A    between atoms: C2_7  and  C4_9 
REMARK    8  A    between atoms: C4_9  and  C5_10 
ROOT
ATOM      1  C5  UNK     1      41.050  12.698  -0.654  1.00  0.00     0.076 A 
ATOM      2  C8  UNK     1      40.580  13.096   0.597  1.00  0.00     0.085 A 
ATOM      3  C9  UNK     1      41.394  11.366  -0.879  1.00  0.00     0.085 A 
ATOM      4  C10 UNK     1      40.456  12.161   1.625  1.00  0.00     0.074 A 
ATOM      5  C11 UNK     1      41.270  10.430   0.148  1.00  0.00     0.074 A 
ATOM      6  C14 UNK     1      40.800  10.828   1.401  1.00  0.00     0.071 A 
ENDROOT
BRANCH   1   7
ATOM      7  C4  UNK     1      41.179  13.677  -1.728  1.00  0.00     0.165 C 
ATOM      8  O1  UNK     1      42.303  14.013  -2.149  1.00  0.00    -0.292 OA
BRANCH   7   9
ATOM      9  C2  UNK     1      39.918  14.304  -2.347  1.00  0.00     0.088 C 
BRANCH   9  10
ATOM     10  C1  UNK     1      40.198  15.606  -3.100  1.00  0.00     0.046 C 
BRANCH  10  11
ATOM     11  C3  UNK     1      39.858  16.815  -2.267  1.00  0.00    -0.058 A 
ATOM     12  C6  UNK     1      40.150  18.081  -2.751  1.00  0.00     0.010 A 
ATOM     13  C12 UNK     1      39.835  19.200  -1.980  1.00  0.00     0.037 A 
ATOM     14  C15 UNK     1      39.231  19.040  -0.732  1.00  0.00     0.065 A 
ATOM     15  C13 UNK     1      38.943  17.760  -0.256  1.00  0.00     0.037 A 
ATOM     16  C7  UNK     1      39.258  16.642  -1.028  1.00  0.00     0.010 A 
BRANCH  14  17
ATOM     17  O5  UNK     1      38.922  20.131   0.019  1.00  0.00    -0.361 OA
ATOM     18  H14 UNK     1      38.342  19.857   0.750  1.00  0.00     0.217 HD
ENDBRANCH  14  17
ENDBRANCH  10  11
ENDBRANCH   9  10
ENDBRANCH   7   9
ENDBRANCH   1   7
BRANCH   2  19
ATOM     19  O2  UNK     1      40.237  14.393   0.839  1.00  0.00    -0.360 OA
ATOM     20  H11 UNK     1      40.757  14.754   1.575  1.00  0.00     0.217 HD
ENDBRANCH   2  19
BRANCH   3  21
ATOM     21  O3  UNK     1      41.854  10.956  -2.095  1.00  0.00    -0.360 OA
ATOM     22  H12 UNK     1      42.309  11.698  -2.530  1.00  0.00     0.217 HD
ENDBRANCH   3  21
BRANCH   6  23
ATOM     23  O4  UNK     1      40.680   9.915   2.403  1.00  0.00    -0.361 OA
ATOM     24  H13 UNK     1      40.023   9.246   2.142  1.00  0.00     0.217 HD
ENDBRANCH   6  23
TORSDOF 8
ENDMDL
