MODEL 1
REMARK VINA RESULT:      -5.9      0.000      0.000
REMARK  8 active torsions:
REMARK  status: ('A' for Active; 'I' for Inactive)
REMARK    1  A    between atoms: O2_2  and  C8_13 
REMARK    2  A    between atoms: O3_3  and  C9_14 
REMARK    3  A    between atoms: O4_4  and  C14_19 
REMARK    4  A    between atoms: O5_5  and  C15_20 
REMARK    5  A    between atoms: C1_6  and  C2_7 
REMARK    6  A    between atoms: C1_6  and  C3_8 
REMARK    7  A    between atoms: C2_7  and  C4_9 
REMARK    8  A    between atoms: C4_9  and  C5_10 
ROOT
ATOM      1  C5  UNK     1      41.134   0.622   8.839  1.00  0.00     0.076 A 
ATOM      2  C8  UNK     1      41.114   1.923   8.335  1.00  0.00     0.085 A 
ATOM      3  C9  UNK     1      40.199  -0.312   8.394  1.00  0.00     0.085 A 
ATOM      4  C10 UNK     1      40.159   2.289   7.388  1.00  0.00     0.074 A 
ATOM      5  C11 UNK     1      39.244   0.053   7.446  1.00  0.00     0.074 A 
ATOM      6  C14 UNK     1      39.223   1.355   6.943  1.00  0.00     0.071 A 
ENDROOT
BRANCH   1   7
ATOM      7  C4  UNK     1      42.134   0.240   9.830  1.00  0.00     0.165 C 
ATOM      8  O1  UNK     1      41.865   0.267  11.046  1.00  0.00    -0.292 OA
BRANCH   7   9
ATOM      9  C2  UNK     1      43.536  -0.197   9.372  1.00  0.00     0.088 C 
BRANCH   9  10
ATOM     10  C1  UNK     1      44.662   0.624  10.004  1.00  0.00     0.046 C 
BRANCH  10  11
ATOM     11  C3  UNK     1      45.649   1.103   8.971  1.00  0.00    -0.058 A 
ATOM     12  C6  UNK     1      47.002   0.869   9.162  1.00  0.00     0.010 A 
ATOM     13  C12 UNK     1      47.917   1.312   8.205  1.00  0.00     0.037 A 
ATOM     14  C15 UNK     1      47.466   1.986   7.069  1.00  0.00     0.065 A 
ATOM     15  C13 UNK     1      46.102   2.215   6.890  1.00  0.00     0.037 A 
ATOM     16  C7  UNK     1      45.188   1.771   7.846  1.00  0.00     0.010 A 
BRANCH  14  17
ATOM     17  O5  UNK     1      48.357   2.416   6.136  1.00  0.00    -0.361 OA
ATOM     18  H14 UNK     1      48.977   1.695   5.935  1.00  0.00     0.217 HD
ENDBRANCH  14  17
ENDBRANCH  10  11
ENDBRANCH   9  10
ENDBRANCH   7   9
ENDBRANCH   1   7
BRANCH   2  19
ATOM     19  O2  UNK     1      42.019   2.852   8.756  1.00  0.00    -0.360 OA
ATOM     20  H11 UNK     1      42.009   2.926   9.723  1.00  0.00     0.217 HD
ENDBRANCH   2  19
BRANCH   3  21
ATOM     21  O3  UNK     1      40.202  -1.589   8.873  1.00  0.00    -0.360 OA
ATOM     22  H12 UNK     1      41.065  -1.997   8.684  1.00  0.00     0.217 HD
ENDBRANCH   3  21
BRANCH   6  23
ATOM     23  O4  UNK     1      38.291   1.712   6.018  1.00  0.00    -0.361 OA
ATOM     24  H13 UNK     1      37.618   2.268   6.448  1.00  0.00     0.217 HD
ENDBRANCH   6  23
TORSDOF 8
ENDMDL
MODEL 2
REMARK VINA RESULT:      -5.9      0.037      1.863
REMARK  8 active torsions:
REMARK  status: ('A' for Active; 'I' for Inactive)
REMARK    1  A    between atoms: O2_2  and  C8_13 
REMARK    2  A    between atoms: O3_3  and  C9_14 
REMARK    3  A    between atoms: O4_4  and  C14_19 
REMARK    4  A    between atoms: O5_5  and  C15_20 
REMARK    5  A    between atoms: C1_6  and  C2_7 
REMARK    6  A    between atoms: C1_6  and  C3_8 
REMARK    7  A    between atoms: C2_7  and  C4_9 
REMARK    8  A    between atoms: C4_9  and  C5_10 
ROOT
ATOM      1  C5  UNK     1      41.140   0.628   8.838  1.00  0.00     0.076 A 
ATOM      2  C8  UNK     1      40.209  -0.304   8.380  1.00  0.00     0.085 A 
ATOM      3  C9  UNK     1      41.107   1.938   8.361  1.00  0.00     0.085 A 
ATOM      4  C10 UNK     1      39.246   0.073   7.445  1.00  0.00     0.074 A 
ATOM      5  C11 UNK     1      40.144   2.316   7.426  1.00  0.00     0.074 A 
ATOM      6  C14 UNK     1      39.213   1.383   6.967  1.00  0.00     0.071 A 
ENDROOT
BRANCH   1   7
ATOM      7  C4  UNK     1      42.147   0.232   9.817  1.00  0.00     0.165 C 
ATOM      8  O1  UNK     1      41.881   0.226  11.034  1.00  0.00    -0.292 OA
BRANCH   7   9
ATOM      9  C2  UNK     1      43.552  -0.178   9.345  1.00  0.00     0.088 C 
BRANCH   9  10
ATOM     10  C1  UNK     1      44.669   0.654   9.977  1.00  0.00     0.046 C 
BRANCH  10  11
ATOM     11  C3  UNK     1      45.663   1.126   8.947  1.00  0.00    -0.058 A 
ATOM     12  C6  UNK     1      47.013   0.878   9.139  1.00  0.00     0.010 A 
ATOM     13  C12 UNK     1      47.934   1.314   8.186  1.00  0.00     0.037 A 
ATOM     14  C15 UNK     1      47.492   1.997   7.051  1.00  0.00     0.065 A 
ATOM     15  C13 UNK     1      46.130   2.241   6.871  1.00  0.00     0.037 A 
ATOM     16  C7  UNK     1      45.211   1.803   7.824  1.00  0.00     0.010 A 
BRANCH  14  17
ATOM     17  O5  UNK     1      48.389   2.421   6.121  1.00  0.00    -0.361 OA
ATOM     18  H14 UNK     1      48.489   1.733   5.442  1.00  0.00     0.217 HD
ENDBRANCH  14  17
ENDBRANCH  10  11
ENDBRANCH   9  10
ENDBRANCH   7   9
ENDBRANCH   1   7
BRANCH   2  19
ATOM     19  O2  UNK     1      40.223  -1.590   8.834  1.00  0.00    -0.360 OA
ATOM     20  H11 UNK     1      39.552  -2.122   8.377  1.00  0.00     0.217 HD
ENDBRANCH   2  19
BRANCH   3  21
ATOM     21  O3  UNK     1      42.007   2.865   8.796  1.00  0.00    -0.360 OA
ATOM     22  H12 UNK     1      41.759   3.155   9.691  1.00  0.00     0.217 HD
ENDBRANCH   3  21
BRANCH   6  23
ATOM     23  O4  UNK     1      38.274   1.752   6.055  1.00  0.00    -0.361 OA
ATOM     24  H13 UNK     1      38.605   1.551   5.162  1.00  0.00     0.217 HD
ENDBRANCH   6  23
TORSDOF 8
ENDMDL
MODEL 3
REMARK VINA RESULT:      -5.8      1.073      1.397
REMARK  8 active torsions:
REMARK  status: ('A' for Active; 'I' for Inactive)
REMARK    1  A    between atoms: O2_2  and  C8_13 
REMARK    2  A    between atoms: O3_3  and  C9_14 
REMARK    3  A    between atoms: O4_4  and  C14_19 
REMARK    4  A    between atoms: O5_5  and  C15_20 
REMARK    5  A    between atoms: C1_6  and  C2_7 
REMARK    6  A    between atoms: C1_6  and  C3_8 
REMARK    7  A    between atoms: C2_7  and  C4_9 
REMARK    8  A    between atoms: C4_9  and  C5_10 
ROOT
ATOM      1  C5  UNK     1      40.305   0.891   9.512  1.00  0.00     0.076 A 
ATOM      2  C8  UNK     1      40.380   2.185   8.996  1.00  0.00     0.085 A 
ATOM      3  C9  UNK     1      39.607  -0.096   8.817  1.00  0.00     0.085 A 
ATOM      4  C10 UNK     1      39.757   2.492   7.787  1.00  0.00     0.074 A 
ATOM      5  C11 UNK     1      38.985   0.209   7.607  1.00  0.00     0.074 A 
ATOM      6  C14 UNK     1      39.059   1.504   7.092  1.00  0.00     0.071 A 
ENDROOT
BRANCH   1   7
ATOM      7  C4  UNK     1      40.957   0.572  10.777  1.00  0.00     0.165 C 
ATOM      8  O1  UNK     1      40.286   0.411  11.814  1.00  0.00    -0.292 OA
BRANCH   7   9
ATOM      9  C2  UNK     1      42.488   0.435  10.834  1.00  0.00     0.088 C 
BRANCH   9  10
ATOM     10  C1  UNK     1      43.069  -0.354   9.659  1.00  0.00     0.046 C 
BRANCH  10  11
ATOM     11  C3  UNK     1      44.042   0.473   8.859  1.00  0.00    -0.058 A 
ATOM     12  C6  UNK     1      45.336   0.644   9.325  1.00  0.00     0.010 A 
ATOM     13  C12 UNK     1      46.237   1.410   8.584  1.00  0.00     0.037 A 
ATOM     14  C15 UNK     1      45.831   1.997   7.385  1.00  0.00     0.065 A 
ATOM     15  C13 UNK     1      44.525   1.818   6.928  1.00  0.00     0.037 A 
ATOM     16  C7  UNK     1      43.626   1.052   7.668  1.00  0.00     0.010 A 
BRANCH  14  17
ATOM     17  O5  UNK     1      46.710   2.743   6.662  1.00  0.00    -0.361 OA
ATOM     18  H14 UNK     1      47.049   2.205   5.927  1.00  0.00     0.217 HD
ENDBRANCH  14  17
ENDBRANCH  10  11
ENDBRANCH   9  10
ENDBRANCH   7   9
ENDBRANCH   1   7
BRANCH   2  19
ATOM     19  O2  UNK     1      41.057   3.166   9.659  1.00  0.00    -0.360 OA
ATOM     20  H11 UNK     1      41.858   3.417   9.173  1.00  0.00     0.217 HD
ENDBRANCH   2  19
BRANCH   3  21
ATOM     21  O3  UNK     1      39.522  -1.368   9.302  1.00  0.00    -0.360 OA
ATOM     22  H12 UNK     1      38.829  -1.848   8.817  1.00  0.00     0.217 HD
ENDBRANCH   3  21
BRANCH   6  23
ATOM     23  O4  UNK     1      38.451   1.803   5.912  1.00  0.00    -0.361 OA
ATOM     24  H13 UNK     1      38.257   0.975   5.439  1.00  0.00     0.217 HD
ENDBRANCH   6  23
TORSDOF 8
ENDMDL
MODEL 4
REMARK VINA RESULT:      -5.8      2.733      3.844
REMARK  8 active torsions:
REMARK  status: ('A' for Active; 'I' for Inactive)
REMARK    1  A    between atoms: O2_2  and  C8_13 
REMARK    2  A    between atoms: O3_3  and  C9_14 
REMARK    3  A    between atoms: O4_4  and  C14_19 
REMARK    4  A    between atoms: O5_5  and  C15_20 
REMARK    5  A    between atoms: C1_6  and  C2_7 
REMARK    6  A    between atoms: C1_6  and  C3_8 
REMARK    7  A    between atoms: C2_7  and  C4_9 
REMARK    8  A    between atoms: C4_9  and  C5_10 
ROOT
ATOM      1  C5  UNK     1      39.809  -1.923   9.774  1.00  0.00     0.076 A 
ATOM      2  C8  UNK     1      38.525  -1.458   9.485  1.00  0.00     0.085 A 
ATOM      3  C9  UNK     1      40.623  -2.402   8.748  1.00  0.00     0.085 A 
ATOM      4  C10 UNK     1      38.057  -1.473   8.172  1.00  0.00     0.074 A 
ATOM      5  C11 UNK     1      40.156  -2.416   7.435  1.00  0.00     0.074 A 
ATOM      6  C14 UNK     1      38.872  -1.952   7.146  1.00  0.00     0.071 A 
ENDROOT
BRANCH   1   7
ATOM      7  C4  UNK     1      40.297  -1.906  11.148  1.00  0.00     0.165 C 
ATOM      8  O1  UNK     1      39.834  -2.692  11.997  1.00  0.00    -0.292 OA
BRANCH   7   9
ATOM      9  C2  UNK     1      41.394  -0.908  11.558  1.00  0.00     0.088 C 
BRANCH   9  10
ATOM     10  C1  UNK     1      41.107   0.525  11.104  1.00  0.00     0.046 C 
BRANCH  10  11
ATOM     11  C3  UNK     1      41.834   0.861   9.828  1.00  0.00    -0.058 A 
ATOM     12  C6  UNK     1      43.131   0.409   9.643  1.00  0.00     0.010 A 
ATOM     13  C12 UNK     1      43.804   0.721   8.461  1.00  0.00     0.037 A 
ATOM     14  C15 UNK     1      43.171   1.483   7.478  1.00  0.00     0.065 A 
ATOM     15  C13 UNK     1      41.865   1.932   7.677  1.00  0.00     0.037 A 
ATOM     16  C7  UNK     1      41.193   1.620   8.859  1.00  0.00     0.010 A 
BRANCH  14  17
ATOM     17  O5  UNK     1      43.827   1.786   6.325  1.00  0.00    -0.361 OA
ATOM     18  H14 UNK     1      44.451   1.069   6.119  1.00  0.00     0.217 HD
ENDBRANCH  14  17
ENDBRANCH  10  11
ENDBRANCH   9  10
ENDBRANCH   7   9
ENDBRANCH   1   7
BRANCH   2  19
ATOM     19  O2  UNK     1      37.712  -0.985  10.472  1.00  0.00    -0.360 OA
ATOM     20  H11 UNK     1      38.233  -0.548  11.165  1.00  0.00     0.217 HD
ENDBRANCH   2  19
BRANCH   3  21
ATOM     21  O3  UNK     1      41.881  -2.859   9.008  1.00  0.00    -0.360 OA
ATOM     22  H12 UNK     1      42.405  -2.833   8.189  1.00  0.00     0.217 HD
ENDBRANCH   3  21
BRANCH   6  23
ATOM     23  O4  UNK     1      38.415  -1.967   5.865  1.00  0.00    -0.361 OA
ATOM     24  H13 UNK     1      37.456  -1.802   5.870  1.00  0.00     0.217 HD
ENDBRANCH   6  23
TORSDOF 8
ENDMDL
MODEL 5
REMARK VINA RESULT:      -5.8      2.734      4.003
REMARK  8 active torsions:
REMARK  status: ('A' for Active; 'I' for Inactive)
REMARK    1  A    between atoms: O2_2  and  C8_13 
REMARK    2  A    between atoms: O3_3  and  C9_14 
REMARK    3  A    between atoms: O4_4  and  C14_19 
REMARK    4  A    between atoms: O5_5  and  C15_20 
REMARK    5  A    between atoms: C1_6  and  C2_7 
REMARK    6  A    between atoms: C1_6  and  C3_8 
REMARK    7  A    between atoms: C2_7  and  C4_9 
REMARK    8  A    between atoms: C4_9  and  C5_10 
ROOT
ATOM      1  C5  UNK     1      39.806  -1.932   9.777  1.00  0.00     0.076 A 
ATOM      2  C8  UNK     1      40.624  -2.405   8.750  1.00  0.00     0.085 A 
ATOM      3  C9  UNK     1      38.522  -1.471   9.488  1.00  0.00     0.085 A 
ATOM      4  C10 UNK     1      40.158  -2.416   7.436  1.00  0.00     0.074 A 
ATOM      5  C11 UNK     1      38.055  -1.482   8.174  1.00  0.00     0.074 A 
ATOM      6  C14 UNK     1      38.873  -1.955   7.147  1.00  0.00     0.071 A 
ENDROOT
BRANCH   1   7
ATOM      7  C4  UNK     1      40.295  -1.922  11.151  1.00  0.00     0.165 C 
ATOM      8  O1  UNK     1      39.822  -2.703  11.999  1.00  0.00    -0.292 OA
BRANCH   7   9
ATOM      9  C2  UNK     1      41.402  -0.936  11.561  1.00  0.00     0.088 C 
BRANCH   9  10
ATOM     10  C1  UNK     1      41.123   0.503  11.123  1.00  0.00     0.046 C 
BRANCH  10  11
ATOM     11  C3  UNK     1      41.841   0.844   9.843  1.00  0.00    -0.058 A 
ATOM     12  C6  UNK     1      41.189   1.591   8.874  1.00  0.00     0.010 A 
ATOM     13  C12 UNK     1      41.854   1.908   7.688  1.00  0.00     0.037 A 
ATOM     14  C15 UNK     1      43.164   1.471   7.486  1.00  0.00     0.065 A 
ATOM     15  C13 UNK     1      43.808   0.719   8.469  1.00  0.00     0.037 A 
ATOM     16  C7  UNK     1      43.143   0.404   9.654  1.00  0.00     0.010 A 
BRANCH  14  17
ATOM     17  O5  UNK     1      43.813   1.780   6.331  1.00  0.00    -0.361 OA
ATOM     18  H14 UNK     1      44.707   2.094   6.546  1.00  0.00     0.217 HD
ENDBRANCH  14  17
ENDBRANCH  10  11
ENDBRANCH   9  10
ENDBRANCH   7   9
ENDBRANCH   1   7
BRANCH   2  19
ATOM     19  O2  UNK     1      41.882  -2.861   9.010  1.00  0.00    -0.360 OA
ATOM     20  H11 UNK     1      42.161  -2.607   9.904  1.00  0.00     0.217 HD
ENDBRANCH   2  19
BRANCH   3  21
ATOM     21  O3  UNK     1      37.706  -1.005  10.477  1.00  0.00    -0.360 OA
ATOM     22  H12 UNK     1      37.795  -0.038  10.533  1.00  0.00     0.217 HD
ENDBRANCH   3  21
BRANCH   6  23
ATOM     23  O4  UNK     1      38.418  -1.965   5.865  1.00  0.00    -0.361 OA
ATOM     24  H13 UNK     1      37.779  -1.240   5.752  1.00  0.00     0.217 HD
ENDBRANCH   6  23
TORSDOF 8
ENDMDL
MODEL 6
REMARK VINA RESULT:      -5.7      1.698      2.495
REMARK  8 active torsions:
REMARK  status: ('A' for Active; 'I' for Inactive)
REMARK    1  A    between atoms: O2_2  and  C8_13 
REMARK    2  A    between atoms: O3_3  and  C9_14 
REMARK    3  A    between atoms: O4_4  and  C14_19 
REMARK    4  A    between atoms: O5_5  and  C15_20 
REMARK    5  A    between atoms: C1_6  and  C2_7 
REMARK    6  A    between atoms: C1_6  and  C3_8 
REMARK    7  A    between atoms: C2_7  and  C4_9 
REMARK    8  A    between atoms: C4_9  and  C5_10 
ROOT
ATOM      1  C5  UNK     1      40.481  -0.817   9.135  1.00  0.00     0.076 A 
ATOM      2  C8  UNK     1      40.758  -2.058   8.561  1.00  0.00     0.085 A 
ATOM      3  C9  UNK     1      39.459  -0.022   8.616  1.00  0.00     0.085 A 
ATOM      4  C10 UNK     1      40.013  -2.504   7.470  1.00  0.00     0.074 A 
ATOM      5  C11 UNK     1      38.713  -0.468   7.525  1.00  0.00     0.074 A 
ATOM      6  C14 UNK     1      38.991  -1.709   6.951  1.00  0.00     0.071 A 
ENDROOT
BRANCH   1   7
ATOM      7  C4  UNK     1      41.260  -0.352  10.276  1.00  0.00     0.165 C 
ATOM      8  O1  UNK     1      40.984  -0.731  11.431  1.00  0.00    -0.292 OA
BRANCH   7   9
ATOM      9  C2  UNK     1      42.433   0.619  10.057  1.00  0.00     0.088 C 
BRANCH   9  10
ATOM     10  C1  UNK     1      43.771  -0.090   9.841  1.00  0.00     0.046 C 
BRANCH  10  11
ATOM     11  C3  UNK     1      44.680   0.700   8.935  1.00  0.00    -0.058 A 
ATOM     12  C6  UNK     1      46.027   0.809   9.246  1.00  0.00     0.010 A 
ATOM     13  C12 UNK     1      46.868   1.541   8.407  1.00  0.00     0.037 A 
ATOM     14  C15 UNK     1      46.352   2.157   7.266  1.00  0.00     0.065 A 
ATOM     15  C13 UNK     1      44.995   2.040   6.965  1.00  0.00     0.037 A 
ATOM     16  C7  UNK     1      44.154   1.308   7.803  1.00  0.00     0.010 A 
BRANCH  14  17
ATOM     17  O5  UNK     1      47.172   2.868   6.448  1.00  0.00    -0.361 OA
ATOM     18  H14 UNK     1      46.739   2.979   5.585  1.00  0.00     0.217 HD
ENDBRANCH  14  17
ENDBRANCH  10  11
ENDBRANCH   9  10
ENDBRANCH   7   9
ENDBRANCH   1   7
BRANCH   2  19
ATOM     19  O2  UNK     1      41.752  -2.851   9.052  1.00  0.00    -0.360 OA
ATOM     20  H11 UNK     1      42.448  -2.313   9.464  1.00  0.00     0.217 HD
ENDBRANCH   2  19
BRANCH   3  21
ATOM     21  O3  UNK     1      39.171   1.194   9.162  1.00  0.00    -0.360 OA
ATOM     22  H12 UNK     1      39.217   1.873   8.467  1.00  0.00     0.217 HD
ENDBRANCH   3  21
BRANCH   6  23
ATOM     23  O4  UNK     1      38.264  -2.144   5.886  1.00  0.00    -0.361 OA
ATOM     24  H13 UNK     1      37.412  -1.676   5.874  1.00  0.00     0.217 HD
ENDBRANCH   6  23
TORSDOF 8
ENDMDL
MODEL 7
REMARK VINA RESULT:      -5.7      1.697      2.319
REMARK  8 active torsions:
REMARK  status: ('A' for Active; 'I' for Inactive)
REMARK    1  A    between atoms: O2_2  and  C8_13 
REMARK    2  A    between atoms: O3_3  and  C9_14 
REMARK    3  A    between atoms: O4_4  and  C14_19 
REMARK    4  A    between atoms: O5_5  and  C15_20 
REMARK    5  A    between atoms: C1_6  and  C2_7 
REMARK    6  A    between atoms: C1_6  and  C3_8 
REMARK    7  A    between atoms: C2_7  and  C4_9 
REMARK    8  A    between atoms: C4_9  and  C5_10 
ROOT
ATOM      1  C5  UNK     1      40.478  -0.820   9.125  1.00  0.00     0.076 A 
ATOM      2  C8  UNK     1      39.454  -0.025   8.610  1.00  0.00     0.085 A 
ATOM      3  C9  UNK     1      40.754  -2.060   8.549  1.00  0.00     0.085 A 
ATOM      4  C10 UNK     1      38.705  -0.471   7.521  1.00  0.00     0.074 A 
ATOM      5  C11 UNK     1      40.006  -2.506   7.460  1.00  0.00     0.074 A 
ATOM      6  C14 UNK     1      38.981  -1.711   6.945  1.00  0.00     0.071 A 
ENDROOT
BRANCH   1   7
ATOM      7  C4  UNK     1      41.260  -0.353  10.264  1.00  0.00     0.165 C 
ATOM      8  O1  UNK     1      40.989  -0.733  11.419  1.00  0.00    -0.292 OA
BRANCH   7   9
ATOM      9  C2  UNK     1      42.430   0.620  10.040  1.00  0.00     0.088 C 
BRANCH   9  10
ATOM     10  C1  UNK     1      43.772  -0.086   9.831  1.00  0.00     0.046 C 
BRANCH  10  11
ATOM     11  C3  UNK     1      44.682   0.704   8.926  1.00  0.00    -0.058 A 
ATOM     12  C6  UNK     1      44.158   1.315   7.798  1.00  0.00     0.010 A 
ATOM     13  C12 UNK     1      45.001   2.047   6.960  1.00  0.00     0.037 A 
ATOM     14  C15 UNK     1      46.359   2.158   7.262  1.00  0.00     0.065 A 
ATOM     15  C13 UNK     1      46.873   1.537   8.401  1.00  0.00     0.037 A 
ATOM     16  C7  UNK     1      46.030   0.806   9.238  1.00  0.00     0.010 A 
BRANCH  14  17
ATOM     17  O5  UNK     1      47.181   2.872   6.447  1.00  0.00    -0.361 OA
ATOM     18  H14 UNK     1      46.659   3.556   5.993  1.00  0.00     0.217 HD
ENDBRANCH  14  17
ENDBRANCH  10  11
ENDBRANCH   9  10
ENDBRANCH   7   9
ENDBRANCH   1   7
BRANCH   2  19
ATOM     19  O2  UNK     1      39.167   1.190   9.157  1.00  0.00    -0.360 OA
ATOM     20  H11 UNK     1      38.533   1.674   8.604  1.00  0.00     0.217 HD
ENDBRANCH   2  19
BRANCH   3  21
ATOM     21  O3  UNK     1      41.751  -2.853   9.036  1.00  0.00    -0.360 OA
ATOM     22  H12 UNK     1      42.548  -2.733   8.490  1.00  0.00     0.217 HD
ENDBRANCH   3  21
BRANCH   6  23
ATOM     23  O4  UNK     1      38.251  -2.146   5.883  1.00  0.00    -0.361 OA
ATOM     24  H13 UNK     1      38.697  -2.916   5.488  1.00  0.00     0.217 HD
ENDBRANCH   6  23
TORSDOF 8
ENDMDL
MODEL 8
REMARK VINA RESULT:      -5.7      1.685      2.711
REMARK  8 active torsions:
REMARK  status: ('A' for Active; 'I' for Inactive)
REMARK    1  A    between atoms: O2_2  and  C8_13 
REMARK    2  A    between atoms: O3_3  and  C9_14 
REMARK    3  A    between atoms: O4_4  and  C14_19 
REMARK    4  A    between atoms: O5_5  and  C15_20 
REMARK    5  A    between atoms: C1_6  and  C2_7 
REMARK    6  A    between atoms: C1_6  and  C3_8 
REMARK    7  A    between atoms: C2_7  and  C4_9 
REMARK    8  A    between atoms: C4_9  and  C5_10 
ROOT
ATOM      1  C5  UNK     1      40.489  -0.811   9.119  1.00  0.00     0.076 A 
ATOM      2  C8  UNK     1      40.760  -2.058   8.557  1.00  0.00     0.085 A 
ATOM      3  C9  UNK     1      39.468  -0.018   8.596  1.00  0.00     0.085 A 
ATOM      4  C10 UNK     1      40.010  -2.513   7.472  1.00  0.00     0.074 A 
ATOM      5  C11 UNK     1      38.717  -0.472   7.512  1.00  0.00     0.074 A 
ATOM      6  C14 UNK     1      38.988  -1.720   6.950  1.00  0.00     0.071 A 
ENDROOT
BRANCH   1   7
ATOM      7  C4  UNK     1      41.274  -0.337  10.253  1.00  0.00     0.165 C 
ATOM      8  O1  UNK     1      41.007  -0.713  11.411  1.00  0.00    -0.292 OA
BRANCH   7   9
ATOM      9  C2  UNK     1      42.441   0.638  10.022  1.00  0.00     0.088 C 
BRANCH   9  10
ATOM     10  C1  UNK     1      43.787  -0.065   9.831  1.00  0.00     0.046 C 
BRANCH  10  11
ATOM     11  C3  UNK     1      44.701   0.720   8.926  1.00  0.00    -0.058 A 
ATOM     12  C6  UNK     1      44.183   1.327   7.793  1.00  0.00     0.010 A 
ATOM     13  C12 UNK     1      45.030   2.054   6.955  1.00  0.00     0.037 A 
ATOM     14  C15 UNK     1      46.387   2.164   7.261  1.00  0.00     0.065 A 
ATOM     15  C13 UNK     1      46.896   1.547   8.404  1.00  0.00     0.037 A 
ATOM     16  C7  UNK     1      46.049   0.821   9.241  1.00  0.00     0.010 A 
BRANCH  14  17
ATOM     17  O5  UNK     1      47.212   2.874   6.445  1.00  0.00    -0.361 OA
ATOM     18  H14 UNK     1      46.679   3.491   5.917  1.00  0.00     0.217 HD
ENDBRANCH  14  17
ENDBRANCH  10  11
ENDBRANCH   9  10
ENDBRANCH   7   9
ENDBRANCH   1   7
BRANCH   2  19
ATOM     19  O2  UNK     1      41.754  -2.850   9.052  1.00  0.00    -0.360 OA
ATOM     20  H11 UNK     1      41.553  -3.787   8.899  1.00  0.00     0.217 HD
ENDBRANCH   2  19
BRANCH   3  21
ATOM     21  O3  UNK     1      39.186   1.204   9.132  1.00  0.00    -0.360 OA
ATOM     22  H12 UNK     1      38.623   1.086   9.916  1.00  0.00     0.217 HD
ENDBRANCH   3  21
BRANCH   6  23
ATOM     23  O4  UNK     1      38.257  -2.162   5.891  1.00  0.00    -0.361 OA
ATOM     24  H13 UNK     1      37.486  -2.654   6.224  1.00  0.00     0.217 HD
ENDBRANCH   6  23
TORSDOF 8
ENDMDL
MODEL 9
REMARK VINA RESULT:      -5.6      1.498      6.071
REMARK  8 active torsions:
REMARK  status: ('A' for Active; 'I' for Inactive)
REMARK    1  A    between atoms: O2_2  and  C8_13 
REMARK    2  A    between atoms: O3_3  and  C9_14 
REMARK    3  A    between atoms: O4_4  and  C14_19 
REMARK    4  A    between atoms: O5_5  and  C15_20 
REMARK    5  A    between atoms: C1_6  and  C2_7 
REMARK    6  A    between atoms: C1_6  and  C3_8 
REMARK    7  A    between atoms: C2_7  and  C4_9 
REMARK    8  A    between atoms: C4_9  and  C5_10 
ROOT
ATOM      1  C5  UNK     1      44.315   0.698   9.006  1.00  0.00     0.076 A 
ATOM      2  C8  UNK     1      44.018   1.040   7.686  1.00  0.00     0.085 A 
ATOM      3  C9  UNK     1      45.556   1.029   9.549  1.00  0.00     0.085 A 
ATOM      4  C10 UNK     1      44.963   1.711   6.910  1.00  0.00     0.074 A 
ATOM      5  C11 UNK     1      46.501   1.700   8.774  1.00  0.00     0.074 A 
ATOM      6  C14 UNK     1      46.204   2.041   7.453  1.00  0.00     0.071 A 
ENDROOT
BRANCH   1   7
ATOM      7  C4  UNK     1      43.326  -0.003   9.816  1.00  0.00     0.165 C 
ATOM      8  O1  UNK     1      43.185  -1.238   9.719  1.00  0.00    -0.292 OA
BRANCH   7   9
ATOM      9  C2  UNK     1      42.445   0.786  10.800  1.00  0.00     0.088 C 
BRANCH   9  10
ATOM     10  C1  UNK     1      40.977   0.354  10.775  1.00  0.00     0.046 C 
BRANCH  10  11
ATOM     11  C3  UNK     1      40.302   0.748   9.487  1.00  0.00    -0.058 A 
ATOM     12  C6  UNK     1      39.725  -0.230   8.692  1.00  0.00     0.010 A 
ATOM     13  C12 UNK     1      39.100   0.135   7.499  1.00  0.00     0.037 A 
ATOM     14  C15 UNK     1      39.060   1.476   7.115  1.00  0.00     0.065 A 
ATOM     15  C13 UNK     1      39.644   2.451   7.924  1.00  0.00     0.037 A 
ATOM     16  C7  UNK     1      40.268   2.085   9.116  1.00  0.00     0.010 A 
BRANCH  14  17
ATOM     17  O5  UNK     1      38.449   1.832   5.953  1.00  0.00    -0.361 OA
ATOM     18  H14 UNK     1      39.071   1.705   5.217  1.00  0.00     0.217 HD
ENDBRANCH  14  17
ENDBRANCH  10  11
ENDBRANCH   9  10
ENDBRANCH   7   9
ENDBRANCH   1   7
BRANCH   2  19
ATOM     19  O2  UNK     1      42.811   0.727   7.135  1.00  0.00    -0.360 OA
ATOM     20  H11 UNK     1      42.461   1.477   6.629  1.00  0.00     0.217 HD
ENDBRANCH   2  19
BRANCH   3  21
ATOM     21  O3  UNK     1      45.866   0.705  10.837  1.00  0.00    -0.360 OA
ATOM     22  H12 UNK     1      46.827   0.788  10.963  1.00  0.00     0.217 HD
ENDBRANCH   3  21
BRANCH   6  23
ATOM     23  O4  UNK     1      47.127   2.696   6.697  1.00  0.00    -0.361 OA
ATOM     24  H13 UNK     1      46.679   3.101   5.934  1.00  0.00     0.217 HD
ENDBRANCH   6  23
TORSDOF 8
ENDMDL
MODEL 10
REMARK VINA RESULT:      -5.6      1.498      6.005
REMARK  8 active torsions:
REMARK  status: ('A' for Active; 'I' for Inactive)
REMARK    1  A    between atoms: O2_2  and  C8_13 
REMARK    2  A    between atoms: O3_3  and  C9_14 
REMARK    3  A    between atoms: O4_4  and  C14_19 
REMARK    4  A    between atoms: O5_5  and  C15_20 
REMARK    5  A    between atoms: C1_6  and  C2_7 
REMARK    6  A    between atoms: C1_6  and  C3_8 
REMARK    7  A    between atoms: C2_7  and  C4_9 
REMARK    8  A    between atoms: C4_9  and  C5_10 
ROOT
ATOM      1  C5  UNK     1      44.296   0.706   9.003  1.00  0.00     0.076 A 
ATOM      2  C8  UNK     1      45.536   1.039   9.548  1.00  0.00     0.085 A 
ATOM      3  C9  UNK     1      44.001   1.045   7.682  1.00  0.00     0.085 A 
ATOM      4  C10 UNK     1      46.481   1.710   8.773  1.00  0.00     0.074 A 
ATOM      5  C11 UNK     1      44.946   1.716   6.907  1.00  0.00     0.074 A 
ATOM      6  C14 UNK     1      46.187   2.049   7.452  1.00  0.00     0.071 A 
ENDROOT
BRANCH   1   7
ATOM      7  C4  UNK     1      43.308   0.004   9.814  1.00  0.00     0.165 C 
ATOM      8  O1  UNK     1      43.163  -1.230   9.711  1.00  0.00    -0.292 OA
BRANCH   7   9
ATOM      9  C2  UNK     1      42.434   0.790  10.805  1.00  0.00     0.088 C 
BRANCH   9  10
ATOM     10  C1  UNK     1      40.964   0.366  10.782  1.00  0.00     0.046 C 
BRANCH  10  11
ATOM     11  C3  UNK     1      40.291   0.756   9.491  1.00  0.00    -0.058 A 
ATOM     12  C6  UNK     1      39.719  -0.225   8.697  1.00  0.00     0.010 A 
ATOM     13  C12 UNK     1      39.096   0.136   7.501  1.00  0.00     0.037 A 
ATOM     14  C15 UNK     1      39.055   1.476   7.114  1.00  0.00     0.065 A 
ATOM     15  C13 UNK     1      39.635   2.454   7.923  1.00  0.00     0.037 A 
ATOM     16  C7  UNK     1      40.256   2.092   9.118  1.00  0.00     0.010 A 
BRANCH  14  17
ATOM     17  O5  UNK     1      38.446   1.829   5.950  1.00  0.00    -0.361 OA
ATOM     18  H14 UNK     1      38.906   2.599   5.574  1.00  0.00     0.217 HD
ENDBRANCH  14  17
ENDBRANCH  10  11
ENDBRANCH   9  10
ENDBRANCH   7   9
ENDBRANCH   1   7
BRANCH   2  19
ATOM     19  O2  UNK     1      45.845   0.717  10.836  1.00  0.00    -0.360 OA
ATOM     20  H11 UNK     1      45.065   0.802  11.407  1.00  0.00     0.217 HD
ENDBRANCH   2  19
BRANCH   3  21
ATOM     21  O3  UNK     1      42.795   0.729   7.130  1.00  0.00    -0.360 OA
ATOM     22  H12 UNK     1      42.903   0.626   6.169  1.00  0.00     0.217 HD
ENDBRANCH   3  21
BRANCH   6  23
ATOM     23  O4  UNK     1      47.108   2.705   6.695  1.00  0.00    -0.361 OA
ATOM     24  H13 UNK     1      47.460   2.092   6.026  1.00  0.00     0.217 HD
ENDBRANCH   6  23
TORSDOF 8
ENDMDL
MODEL 11
REMARK VINA RESULT:      -5.6      4.384      6.227
REMARK  8 active torsions:
REMARK  status: ('A' for Active; 'I' for Inactive)
REMARK    1  A    between atoms: O2_2  and  C8_13 
REMARK    2  A    between atoms: O3_3  and  C9_14 
REMARK    3  A    between atoms: O4_4  and  C14_19 
REMARK    4  A    between atoms: O5_5  and  C15_20 
REMARK    5  A    between atoms: C1_6  and  C2_7 
REMARK    6  A    between atoms: C1_6  and  C3_8 
REMARK    7  A    between atoms: C2_7  and  C4_9 
REMARK    8  A    between atoms: C4_9  and  C5_10 
ROOT
ATOM      1  C5  UNK     1      39.926  -2.206   8.943  1.00  0.00     0.076 A 
ATOM      2  C8  UNK     1      41.107  -1.596   9.366  1.00  0.00     0.085 A 
ATOM      3  C9  UNK     1      39.171  -2.959   9.841  1.00  0.00     0.085 A 
ATOM      4  C10 UNK     1      41.533  -1.740  10.686  1.00  0.00     0.074 A 
ATOM      5  C11 UNK     1      39.595  -3.104  11.161  1.00  0.00     0.074 A 
ATOM      6  C14 UNK     1      40.777  -2.494  11.584  1.00  0.00     0.071 A 
ENDROOT
BRANCH   1   7
ATOM      7  C4  UNK     1      39.482  -2.054   7.562  1.00  0.00     0.165 C 
ATOM      8  O1  UNK     1      39.653  -2.971   6.735  1.00  0.00    -0.292 OA
BRANCH   7   9
ATOM      9  C2  UNK     1      38.798  -0.750   7.118  1.00  0.00     0.088 C 
BRANCH   9  10
ATOM     10  C1  UNK     1      37.996  -0.077   8.234  1.00  0.00     0.046 C 
BRANCH  10  11
ATOM     11  C3  UNK     1      38.680   1.166   8.740  1.00  0.00    -0.058 A 
ATOM     12  C6  UNK     1      38.387   1.636  10.011  1.00  0.00     0.010 A 
ATOM     13  C12 UNK     1      39.021   2.787  10.480  1.00  0.00     0.037 A 
ATOM     14  C15 UNK     1      39.940   3.456   9.671  1.00  0.00     0.065 A 
ATOM     15  C13 UNK     1      40.225   2.973   8.393  1.00  0.00     0.037 A 
ATOM     16  C7  UNK     1      39.592   1.822   7.926  1.00  0.00     0.010 A 
BRANCH  14  17
ATOM     17  O5  UNK     1      40.558   4.578  10.129  1.00  0.00    -0.361 OA
ATOM     18  H14 UNK     1      40.210   5.349   9.649  1.00  0.00     0.217 HD
ENDBRANCH  14  17
ENDBRANCH  10  11
ENDBRANCH   9  10
ENDBRANCH   7   9
ENDBRANCH   1   7
BRANCH   2  19
ATOM     19  O2  UNK     1      41.861  -0.854   8.505  1.00  0.00    -0.360 OA
ATOM     20  H11 UNK     1      42.723  -0.645   8.898  1.00  0.00     0.217 HD
ENDBRANCH   2  19
BRANCH   3  21
ATOM     21  O3  UNK     1      38.013  -3.563   9.448  1.00  0.00    -0.360 OA
ATOM     22  H12 UNK     1      37.510  -3.831  10.237  1.00  0.00     0.217 HD
ENDBRANCH   3  21
BRANCH   6  23
ATOM     23  O4  UNK     1      41.192  -2.636  12.872  1.00  0.00    -0.361 OA
ATOM     24  H13 UNK     1      40.780  -3.432  13.250  1.00  0.00     0.217 HD
ENDBRANCH   6  23
TORSDOF 8
ENDMDL
MODEL 12
REMARK VINA RESULT:      -5.6      4.387      6.470
REMARK  8 active torsions:
REMARK  status: ('A' for Active; 'I' for Inactive)
REMARK    1  A    between atoms: O2_2  and  C8_13 
REMARK    2  A    between atoms: O3_3  and  C9_14 
REMARK    3  A    between atoms: O4_4  and  C14_19 
REMARK    4  A    between atoms: O5_5  and  C15_20 
REMARK    5  A    between atoms: C1_6  and  C2_7 
REMARK    6  A    between atoms: C1_6  and  C3_8 
REMARK    7  A    between atoms: C2_7  and  C4_9 
REMARK    8  A    between atoms: C4_9  and  C5_10 
ROOT
ATOM      1  C5  UNK     1      39.911  -2.212   8.940  1.00  0.00     0.076 A 
ATOM      2  C8  UNK     1      39.158  -2.958   9.846  1.00  0.00     0.085 A 
ATOM      3  C9  UNK     1      41.096  -1.603   9.354  1.00  0.00     0.085 A 
ATOM      4  C10 UNK     1      39.589  -3.096  11.165  1.00  0.00     0.074 A 
ATOM      5  C11 UNK     1      41.528  -1.741  10.672  1.00  0.00     0.074 A 
ATOM      6  C14 UNK     1      40.774  -2.488  11.579  1.00  0.00     0.071 A 
ENDROOT
BRANCH   1   7
ATOM      7  C4  UNK     1      39.459  -2.069   7.561  1.00  0.00     0.165 C 
ATOM      8  O1  UNK     1      39.603  -3.000   6.746  1.00  0.00    -0.292 OA
BRANCH   7   9
ATOM      9  C2  UNK     1      38.801  -0.756   7.104  1.00  0.00     0.088 C 
BRANCH   9  10
ATOM     10  C1  UNK     1      37.985  -0.074   8.205  1.00  0.00     0.046 C 
BRANCH  10  11
ATOM     11  C3  UNK     1      38.671   1.166   8.719  1.00  0.00    -0.058 A 
ATOM     12  C6  UNK     1      39.591   1.820   7.914  1.00  0.00     0.010 A 
ATOM     13  C12 UNK     1      40.225   2.968   8.390  1.00  0.00     0.037 A 
ATOM     14  C15 UNK     1      39.934   3.446   9.669  1.00  0.00     0.065 A 
ATOM     15  C13 UNK     1      39.007   2.778  10.469  1.00  0.00     0.037 A 
ATOM     16  C7  UNK     1      38.373   1.631   9.992  1.00  0.00     0.010 A 
BRANCH  14  17
ATOM     17  O5  UNK     1      40.552   4.566  10.133  1.00  0.00    -0.361 OA
ATOM     18  H14 UNK     1      39.912   5.092  10.641  1.00  0.00     0.217 HD
ENDBRANCH  14  17
ENDBRANCH  10  11
ENDBRANCH   9  10
ENDBRANCH   7   9
ENDBRANCH   1   7
BRANCH   2  19
ATOM     19  O2  UNK     1      37.997  -3.562   9.464  1.00  0.00    -0.360 OA
ATOM     20  H11 UNK     1      37.305  -2.901   9.299  1.00  0.00     0.217 HD
ENDBRANCH   2  19
BRANCH   3  21
ATOM     21  O3  UNK     1      41.848  -0.870   8.484  1.00  0.00    -0.360 OA
ATOM     22  H12 UNK     1      41.499   0.038   8.450  1.00  0.00     0.217 HD
ENDBRANCH   3  21
BRANCH   6  23
ATOM     23  O4  UNK     1      41.196  -2.621  12.866  1.00  0.00    -0.361 OA
ATOM     24  H13 UNK     1      41.455  -1.747  13.205  1.00  0.00     0.217 HD
ENDBRANCH   6  23
TORSDOF 8
ENDMDL
MODEL 13
REMARK VINA RESULT:      -5.6      5.628      9.145
REMARK  8 active torsions:
REMARK  status: ('A' for Active; 'I' for Inactive)
REMARK    1  A    between atoms: O2_2  and  C8_13 
REMARK    2  A    between atoms: O3_3  and  C9_14 
REMARK    3  A    between atoms: O4_4  and  C14_19 
REMARK    4  A    between atoms: O5_5  and  C15_20 
REMARK    5  A    between atoms: C1_6  and  C2_7 
REMARK    6  A    between atoms: C1_6  and  C3_8 
REMARK    7  A    between atoms: C2_7  and  C4_9 
REMARK    8  A    between atoms: C4_9  and  C5_10 
ROOT
ATOM      1  C5  UNK     1      37.687  -2.496   8.022  1.00  0.00     0.076 A 
ATOM      2  C8  UNK     1      38.062  -2.728   9.346  1.00  0.00     0.085 A 
ATOM      3  C9  UNK     1      38.664  -2.357   7.036  1.00  0.00     0.085 A 
ATOM      4  C10 UNK     1      39.412  -2.820   9.683  1.00  0.00     0.074 A 
ATOM      5  C11 UNK     1      40.014  -2.450   7.373  1.00  0.00     0.074 A 
ATOM      6  C14 UNK     1      40.388  -2.681   8.697  1.00  0.00     0.071 A 
ENDROOT
BRANCH   1   7
ATOM      7  C4  UNK     1      36.275  -2.400   7.671  1.00  0.00     0.165 C 
ATOM      8  O1  UNK     1      35.729  -1.289   7.532  1.00  0.00    -0.292 OA
BRANCH   7   9
ATOM      9  C2  UNK     1      35.448  -3.682   7.471  1.00  0.00     0.088 C 
BRANCH   9  10
ATOM     10  C1  UNK     1      35.441  -4.177   6.024  1.00  0.00     0.046 C 
BRANCH  10  11
ATOM     11  C3  UNK     1      36.450  -5.274   5.805  1.00  0.00    -0.058 A 
ATOM     12  C6  UNK     1      36.949  -5.498   4.531  1.00  0.00     0.010 A 
ATOM     13  C12 UNK     1      37.884  -6.514   4.329  1.00  0.00     0.037 A 
ATOM     14  C15 UNK     1      38.308  -7.296   5.405  1.00  0.00     0.065 A 
ATOM     15  C13 UNK     1      37.798  -7.060   6.682  1.00  0.00     0.037 A 
ATOM     16  C7  UNK     1      36.864  -6.044   6.883  1.00  0.00     0.010 A 
BRANCH  14  17
ATOM     17  O5  UNK     1      39.221  -8.285   5.208  1.00  0.00    -0.361 OA
ATOM     18  H14 UNK     1      39.723  -8.095   4.398  1.00  0.00     0.217 HD
ENDBRANCH  14  17
ENDBRANCH  10  11
ENDBRANCH   9  10
ENDBRANCH   7   9
ENDBRANCH   1   7
BRANCH   2  19
ATOM     19  O2  UNK     1      37.124  -2.867  10.326  1.00  0.00    -0.360 OA
ATOM     20  H11 UNK     1      37.537  -2.828  11.203  1.00  0.00     0.217 HD
ENDBRANCH   2  19
BRANCH   3  21
ATOM     21  O3  UNK     1      38.320  -2.131   5.736  1.00  0.00    -0.360 OA
ATOM     22  H12 UNK     1      38.205  -2.985   5.284  1.00  0.00     0.217 HD
ENDBRANCH   3  21
BRANCH   6  23
ATOM     23  O4  UNK     1      41.706  -2.771   9.026  1.00  0.00    -0.361 OA
ATOM     24  H13 UNK     1      41.951  -1.995   9.559  1.00  0.00     0.217 HD
ENDBRANCH   6  23
TORSDOF 8
ENDMDL
MODEL 14
REMARK VINA RESULT:      -5.6      5.633      9.107
REMARK  8 active torsions:
REMARK  status: ('A' for Active; 'I' for Inactive)
REMARK    1  A    between atoms: O2_2  and  C8_13 
REMARK    2  A    between atoms: O3_3  and  C9_14 
REMARK    3  A    between atoms: O4_4  and  C14_19 
REMARK    4  A    between atoms: O5_5  and  C15_20 
REMARK    5  A    between atoms: C1_6  and  C2_7 
REMARK    6  A    between atoms: C1_6  and  C3_8 
REMARK    7  A    between atoms: C2_7  and  C4_9 
REMARK    8  A    between atoms: C4_9  and  C5_10 
ROOT
ATOM      1  C5  UNK     1      37.675  -2.513   8.024  1.00  0.00     0.076 A 
ATOM      2  C8  UNK     1      38.646  -2.372   7.032  1.00  0.00     0.085 A 
ATOM      3  C9  UNK     1      38.057  -2.738   9.346  1.00  0.00     0.085 A 
ATOM      4  C10 UNK     1      39.998  -2.455   7.363  1.00  0.00     0.074 A 
ATOM      5  C11 UNK     1      39.409  -2.821   9.678  1.00  0.00     0.074 A 
ATOM      6  C14 UNK     1      40.380  -2.680   8.686  1.00  0.00     0.071 A 
ENDROOT
BRANCH   1   7
ATOM      7  C4  UNK     1      36.261  -2.426   7.677  1.00  0.00     0.165 C 
ATOM      8  O1  UNK     1      35.711  -1.317   7.531  1.00  0.00    -0.292 OA
BRANCH   7   9
ATOM      9  C2  UNK     1      35.438  -3.711   7.491  1.00  0.00     0.088 C 
BRANCH   9  10
ATOM     10  C1  UNK     1      35.419  -4.213   6.045  1.00  0.00     0.046 C 
BRANCH  10  11
ATOM     11  C3  UNK     1      36.437  -5.301   5.820  1.00  0.00    -0.058 A 
ATOM     12  C6  UNK     1      36.944  -5.507   4.546  1.00  0.00     0.010 A 
ATOM     13  C12 UNK     1      37.887  -6.515   4.338  1.00  0.00     0.037 A 
ATOM     14  C15 UNK     1      38.310  -7.306   5.407  1.00  0.00     0.065 A 
ATOM     15  C13 UNK     1      37.791  -7.089   6.683  1.00  0.00     0.037 A 
ATOM     16  C7  UNK     1      36.849  -6.081   6.891  1.00  0.00     0.010 A 
BRANCH  14  17
ATOM     17  O5  UNK     1      39.230  -8.287   5.204  1.00  0.00    -0.361 OA
ATOM     18  H14 UNK     1      40.097  -7.879   5.046  1.00  0.00     0.217 HD
ENDBRANCH  14  17
ENDBRANCH  10  11
ENDBRANCH   9  10
ENDBRANCH   7   9
ENDBRANCH   1   7
BRANCH   2  19
ATOM     19  O2  UNK     1      38.295  -2.151   5.734  1.00  0.00    -0.360 OA
ATOM     20  H11 UNK     1      37.472  -2.617   5.517  1.00  0.00     0.217 HD
ENDBRANCH   2  19
BRANCH   3  21
ATOM     21  O3  UNK     1      37.124  -2.879  10.331  1.00  0.00    -0.360 OA
ATOM     22  H12 UNK     1      37.076  -2.053  10.844  1.00  0.00     0.217 HD
ENDBRANCH   3  21
BRANCH   6  23
ATOM     23  O4  UNK     1      41.699  -2.762   9.009  1.00  0.00    -0.361 OA
ATOM     24  H13 UNK     1      42.213  -2.234   8.374  1.00  0.00     0.217 HD
ENDBRANCH   6  23
TORSDOF 8
ENDMDL
MODEL 15
REMARK VINA RESULT:      -5.6      1.376      6.449
REMARK  8 active torsions:
REMARK  status: ('A' for Active; 'I' for Inactive)
REMARK    1  A    between atoms: O2_2  and  C8_13 
REMARK    2  A    between atoms: O3_3  and  C9_14 
REMARK    3  A    between atoms: O4_4  and  C14_19 
REMARK    4  A    between atoms: O5_5  and  C15_20 
REMARK    5  A    between atoms: C1_6  and  C2_7 
REMARK    6  A    between atoms: C1_6  and  C3_8 
REMARK    7  A    between atoms: C2_7  and  C4_9 
REMARK    8  A    between atoms: C4_9  and  C5_10 
ROOT
ATOM      1  C5  UNK     1      45.509   1.406   8.757  1.00  0.00     0.076 A 
ATOM      2  C8  UNK     1      45.242   2.178   7.626  1.00  0.00     0.085 A 
ATOM      3  C9  UNK     1      46.809   0.967   9.010  1.00  0.00     0.085 A 
ATOM      4  C10 UNK     1      46.274   2.510   6.748  1.00  0.00     0.074 A 
ATOM      5  C11 UNK     1      47.841   1.299   8.134  1.00  0.00     0.074 A 
ATOM      6  C14 UNK     1      47.574   2.070   7.002  1.00  0.00     0.071 A 
ENDROOT
BRANCH   1   7
ATOM      7  C4  UNK     1      44.429   1.060   9.674  1.00  0.00     0.165 C 
ATOM      8  O1  UNK     1      44.313   1.646  10.768  1.00  0.00    -0.292 OA
BRANCH   7   9
ATOM      9  C2  UNK     1      43.424  -0.039   9.292  1.00  0.00     0.088 C 
BRANCH   9  10
ATOM     10  C1  UNK     1      42.041   0.163   9.915  1.00  0.00     0.046 C 
BRANCH  10  11
ATOM     11  C3  UNK     1      41.022   0.579   8.885  1.00  0.00    -0.058 A 
ATOM     12  C6  UNK     1      40.915   1.915   8.533  1.00  0.00     0.010 A 
ATOM     13  C12 UNK     1      39.971   2.300   7.580  1.00  0.00     0.037 A 
ATOM     14  C15 UNK     1      39.144   1.342   6.991  1.00  0.00     0.065 A 
ATOM     15  C13 UNK     1      39.262   0.001   7.354  1.00  0.00     0.037 A 
ATOM     16  C7  UNK     1      40.206  -0.383   8.307  1.00  0.00     0.010 A 
BRANCH  14  17
ATOM     17  O5  UNK     1      38.226   1.717   6.060  1.00  0.00    -0.361 OA
ATOM     18  H14 UNK     1      37.508   2.202   6.502  1.00  0.00     0.217 HD
ENDBRANCH  14  17
ENDBRANCH  10  11
ENDBRANCH   9  10
ENDBRANCH   7   9
ENDBRANCH   1   7
BRANCH   2  19
ATOM     19  O2  UNK     1      43.980   2.618   7.359  1.00  0.00    -0.360 OA
ATOM     20  H11 UNK     1      43.988   3.559   7.122  1.00  0.00     0.217 HD
ENDBRANCH   2  19
BRANCH   3  21
ATOM     21  O3  UNK     1      47.091   0.213  10.111  1.00  0.00    -0.360 OA
ATOM     22  H12 UNK     1      47.459  -0.641   9.825  1.00  0.00     0.217 HD
ENDBRANCH   3  21
BRANCH   6  23
ATOM     23  O4  UNK     1      48.581   2.393   6.146  1.00  0.00    -0.361 OA
ATOM     24  H13 UNK     1      48.734   3.353   6.186  1.00  0.00     0.217 HD
ENDBRANCH   6  23
TORSDOF 8
ENDMDL
MODEL 16
REMARK VINA RESULT:      -5.4      1.594      2.566
REMARK  8 active torsions:
REMARK  status: ('A' for Active; 'I' for Inactive)
REMARK    1  A    between atoms: O2_2  and  C8_13 
REMARK    2  A    between atoms: O3_3  and  C9_14 
REMARK    3  A    between atoms: O4_4  and  C14_19 
REMARK    4  A    between atoms: O5_5  and  C15_20 
REMARK    5  A    between atoms: C1_6  and  C2_7 
REMARK    6  A    between atoms: C1_6  and  C3_8 
REMARK    7  A    between atoms: C2_7  and  C4_9 
REMARK    8  A    between atoms: C4_9  and  C5_10 
ROOT
ATOM      1  C5  UNK     1      40.993   0.937   8.457  1.00  0.00     0.076 A 
ATOM      2  C8  UNK     1      41.162  -0.447   8.471  1.00  0.00     0.085 A 
ATOM      3  C9  UNK     1      39.850   1.494   7.883  1.00  0.00     0.085 A 
ATOM      4  C10 UNK     1      40.189  -1.274   7.910  1.00  0.00     0.074 A 
ATOM      5  C11 UNK     1      38.876   0.668   7.323  1.00  0.00     0.074 A 
ATOM      6  C14 UNK     1      39.046  -0.717   7.337  1.00  0.00     0.071 A 
ENDROOT
BRANCH   1   7
ATOM      7  C4  UNK     1      42.011   1.802   9.043  1.00  0.00     0.165 C 
ATOM      8  O1  UNK     1      42.105   1.924  10.280  1.00  0.00    -0.292 OA
BRANCH   7   9
ATOM      9  C2  UNK     1      42.978   2.573   8.130  1.00  0.00     0.088 C 
BRANCH   9  10
ATOM     10  C1  UNK     1      43.838   1.660   7.253  1.00  0.00     0.046 C 
BRANCH  10  11
ATOM     11  C3  UNK     1      45.209   1.450   7.844  1.00  0.00    -0.058 A 
ATOM     12  C6  UNK     1      45.337   0.757   9.038  1.00  0.00     0.010 A 
ATOM     13  C12 UNK     1      46.606   0.562   9.585  1.00  0.00     0.037 A 
ATOM     14  C15 UNK     1      47.732   1.064   8.931  1.00  0.00     0.065 A 
ATOM     15  C13 UNK     1      47.589   1.760   7.730  1.00  0.00     0.037 A 
ATOM     16  C7  UNK     1      46.320   1.953   7.183  1.00  0.00     0.010 A 
BRANCH  14  17
ATOM     17  O5  UNK     1      48.969   0.873   9.463  1.00  0.00    -0.361 OA
ATOM     18  H14 UNK     1      49.637   1.194   8.834  1.00  0.00     0.217 HD
ENDBRANCH  14  17
ENDBRANCH  10  11
ENDBRANCH   9  10
ENDBRANCH   7   9
ENDBRANCH   1   7
BRANCH   2  19
ATOM     19  O2  UNK     1      42.271  -1.013   9.026  1.00  0.00    -0.360 OA
ATOM     20  H11 UNK     1      43.073  -0.719   8.565  1.00  0.00     0.217 HD
ENDBRANCH   2  19
BRANCH   3  21
ATOM     21  O3  UNK     1      39.665   2.845   7.860  1.00  0.00    -0.360 OA
ATOM     22  H12 UNK     1      39.709   3.157   6.940  1.00  0.00     0.217 HD
ENDBRANCH   3  21
BRANCH   6  23
ATOM     23  O4  UNK     1      38.096  -1.524   6.790  1.00  0.00    -0.361 OA
ATOM     24  H13 UNK     1      37.831  -2.190   7.447  1.00  0.00     0.217 HD
ENDBRANCH   6  23
TORSDOF 8
ENDMDL
MODEL 17
REMARK VINA RESULT:      -5.4      1.589      2.173
REMARK  8 active torsions:
REMARK  status: ('A' for Active; 'I' for Inactive)
REMARK    1  A    between atoms: O2_2  and  C8_13 
REMARK    2  A    between atoms: O3_3  and  C9_14 
REMARK    3  A    between atoms: O4_4  and  C14_19 
REMARK    4  A    between atoms: O5_5  and  C15_20 
REMARK    5  A    between atoms: C1_6  and  C2_7 
REMARK    6  A    between atoms: C1_6  and  C3_8 
REMARK    7  A    between atoms: C2_7  and  C4_9 
REMARK    8  A    between atoms: C4_9  and  C5_10 
ROOT
ATOM      1  C5  UNK     1      41.008   0.934   8.441  1.00  0.00     0.076 A 
ATOM      2  C8  UNK     1      39.857   1.487   7.880  1.00  0.00     0.085 A 
ATOM      3  C9  UNK     1      41.179  -0.450   8.461  1.00  0.00     0.085 A 
ATOM      4  C10 UNK     1      38.877   0.656   7.339  1.00  0.00     0.074 A 
ATOM      5  C11 UNK     1      40.200  -1.282   7.919  1.00  0.00     0.074 A 
ATOM      6  C14 UNK     1      39.047  -0.729   7.358  1.00  0.00     0.071 A 
ENDROOT
BRANCH   1   7
ATOM      7  C4  UNK     1      42.033   1.805   9.007  1.00  0.00     0.165 C 
ATOM      8  O1  UNK     1      42.136   1.945  10.241  1.00  0.00    -0.292 OA
BRANCH   7   9
ATOM      9  C2  UNK     1      42.995   2.560   8.074  1.00  0.00     0.088 C 
BRANCH   9  10
ATOM     10  C1  UNK     1      43.866   1.632   7.225  1.00  0.00     0.046 C 
BRANCH  10  11
ATOM     11  C3  UNK     1      45.235   1.447   7.827  1.00  0.00    -0.058 A 
ATOM     12  C6  UNK     1      45.364   0.772   9.031  1.00  0.00     0.010 A 
ATOM     13  C12 UNK     1      46.632   0.600   9.588  1.00  0.00     0.037 A 
ATOM     14  C15 UNK     1      47.756   1.107   8.935  1.00  0.00     0.065 A 
ATOM     15  C13 UNK     1      47.611   1.785   7.724  1.00  0.00     0.037 A 
ATOM     16  C7  UNK     1      46.344   1.955   7.167  1.00  0.00     0.010 A 
BRANCH  14  17
ATOM     17  O5  UNK     1      48.991   0.939   9.477  1.00  0.00    -0.361 OA
ATOM     18  H14 UNK     1      48.897   0.762  10.429  1.00  0.00     0.217 HD
ENDBRANCH  14  17
ENDBRANCH  10  11
ENDBRANCH   9  10
ENDBRANCH   7   9
ENDBRANCH   1   7
BRANCH   2  19
ATOM     19  O2  UNK     1      39.670   2.837   7.850  1.00  0.00    -0.360 OA
ATOM     20  H11 UNK     1      40.456   3.284   7.498  1.00  0.00     0.217 HD
ENDBRANCH   2  19
BRANCH   3  21
ATOM     21  O3  UNK     1      42.297  -1.010   9.004  1.00  0.00    -0.360 OA
ATOM     22  H12 UNK     1      42.220  -1.979   8.960  1.00  0.00     0.217 HD
ENDBRANCH   3  21
BRANCH   6  23
ATOM     23  O4  UNK     1      38.091  -1.540   6.831  1.00  0.00    -0.361 OA
ATOM     24  H13 UNK     1      38.022  -1.367   5.876  1.00  0.00     0.217 HD
ENDBRANCH   6  23
TORSDOF 8
ENDMDL
MODEL 18
REMARK VINA RESULT:      -5.4      3.180      4.721
REMARK  8 active torsions:
REMARK  status: ('A' for Active; 'I' for Inactive)
REMARK    1  A    between atoms: O2_2  and  C8_13 
REMARK    2  A    between atoms: O3_3  and  C9_14 
REMARK    3  A    between atoms: O4_4  and  C14_19 
REMARK    4  A    between atoms: O5_5  and  C15_20 
REMARK    5  A    between atoms: C1_6  and  C2_7 
REMARK    6  A    between atoms: C1_6  and  C3_8 
REMARK    7  A    between atoms: C2_7  and  C4_9 
REMARK    8  A    between atoms: C4_9  and  C5_10 
ROOT
ATOM      1  C5  UNK     1      38.752  -1.097   8.356  1.00  0.00     0.076 A 
ATOM      2  C8  UNK     1      39.932  -1.641   7.850  1.00  0.00     0.085 A 
ATOM      3  C9  UNK     1      37.518  -1.589   7.928  1.00  0.00     0.085 A 
ATOM      4  C10 UNK     1      39.880  -2.676   6.916  1.00  0.00     0.074 A 
ATOM      5  C11 UNK     1      37.465  -2.624   6.995  1.00  0.00     0.074 A 
ATOM      6  C14 UNK     1      38.647  -3.168   6.488  1.00  0.00     0.071 A 
ENDROOT
BRANCH   1   7
ATOM      7  C4  UNK     1      38.808  -0.015   9.332  1.00  0.00     0.165 C 
ATOM      8  O1  UNK     1      39.184  -0.233  10.500  1.00  0.00    -0.292 OA
BRANCH   7   9
ATOM      9  C2  UNK     1      38.397   1.408   8.921  1.00  0.00     0.088 C 
BRANCH   9  10
ATOM     10  C1  UNK     1      39.239   1.973   7.774  1.00  0.00     0.046 C 
BRANCH  10  11
ATOM     11  C3  UNK     1      40.558   2.512   8.265  1.00  0.00    -0.058 A 
ATOM     12  C6  UNK     1      40.579   3.383   9.343  1.00  0.00     0.010 A 
ATOM     13  C12 UNK     1      41.801   3.883   9.797  1.00  0.00     0.037 A 
ATOM     14  C15 UNK     1      42.987   3.505   9.166  1.00  0.00     0.065 A 
ATOM     15  C13 UNK     1      42.951   2.628   8.082  1.00  0.00     0.037 A 
ATOM     16  C7  UNK     1      41.730   2.129   7.629  1.00  0.00     0.010 A 
BRANCH  14  17
ATOM     17  O5  UNK     1      44.177   3.991   9.610  1.00  0.00    -0.361 OA
ATOM     18  H14 UNK     1      44.202   3.929  10.579  1.00  0.00     0.217 HD
ENDBRANCH  14  17
ENDBRANCH  10  11
ENDBRANCH   9  10
ENDBRANCH   7   9
ENDBRANCH   1   7
BRANCH   2  19
ATOM     19  O2  UNK     1      41.148  -1.176   8.254  1.00  0.00    -0.360 OA
ATOM     20  H11 UNK     1      41.594  -1.828   8.819  1.00  0.00     0.217 HD
ENDBRANCH   2  19
BRANCH   3  21
ATOM     21  O3  UNK     1      36.353  -1.072   8.410  1.00  0.00    -0.360 OA
ATOM     22  H12 UNK     1      35.994  -1.673   9.086  1.00  0.00     0.217 HD
ENDBRANCH   3  21
BRANCH   6  23
ATOM     23  O4  UNK     1      38.595  -4.177   5.577  1.00  0.00    -0.361 OA
ATOM     24  H13 UNK     1      39.468  -4.601   5.527  1.00  0.00     0.217 HD
ENDBRANCH   6  23
TORSDOF 8
ENDMDL
MODEL 19
REMARK VINA RESULT:      -5.4      2.214      3.956
REMARK  8 active torsions:
REMARK  status: ('A' for Active; 'I' for Inactive)
REMARK    1  A    between atoms: O2_2  and  C8_13 
REMARK    2  A    between atoms: O3_3  and  C9_14 
REMARK    3  A    between atoms: O4_4  and  C14_19 
REMARK    4  A    between atoms: O5_5  and  C15_20 
REMARK    5  A    between atoms: C1_6  and  C2_7 
REMARK    6  A    between atoms: C1_6  and  C3_8 
REMARK    7  A    between atoms: C2_7  and  C4_9 
REMARK    8  A    between atoms: C4_9  and  C5_10 
ROOT
ATOM      1  C5  UNK     1      39.978  -0.217   9.368  1.00  0.00     0.076 A 
ATOM      2  C8  UNK     1      40.445  -0.258  10.681  1.00  0.00     0.085 A 
ATOM      3  C9  UNK     1      40.225  -1.287   8.507  1.00  0.00     0.085 A 
ATOM      4  C10 UNK     1      41.158  -1.367  11.134  1.00  0.00     0.074 A 
ATOM      5  C11 UNK     1      40.938  -2.396   8.959  1.00  0.00     0.074 A 
ATOM      6  C14 UNK     1      41.405  -2.437  10.274  1.00  0.00     0.071 A 
ENDROOT
BRANCH   1   7
ATOM      7  C4  UNK     1      39.231   0.943   8.895  1.00  0.00     0.165 C 
ATOM      8  O1  UNK     1      38.033   1.095   9.202  1.00  0.00    -0.292 OA
BRANCH   7   9
ATOM      9  C2  UNK     1      39.926   1.990   8.007  1.00  0.00     0.088 C 
BRANCH   9  10
ATOM     10  C1  UNK     1      40.923   2.864   8.771  1.00  0.00     0.046 C 
BRANCH  10  11
ATOM     11  C3  UNK     1      42.342   2.600   8.336  1.00  0.00    -0.058 A 
ATOM     12  C6  UNK     1      42.603   1.562   7.455  1.00  0.00     0.010 A 
ATOM     13  C12 UNK     1      43.917   1.319   7.052  1.00  0.00     0.037 A 
ATOM     14  C15 UNK     1      44.954   2.117   7.536  1.00  0.00     0.065 A 
ATOM     15  C13 UNK     1      44.677   3.158   8.423  1.00  0.00     0.037 A 
ATOM     16  C7  UNK     1      43.364   3.401   8.825  1.00  0.00     0.010 A 
BRANCH  14  17
ATOM     17  O5  UNK     1      46.234   1.880   7.142  1.00  0.00    -0.361 OA
ATOM     18  H14 UNK     1      46.714   2.725   7.103  1.00  0.00     0.217 HD
ENDBRANCH  14  17
ENDBRANCH  10  11
ENDBRANCH   9  10
ENDBRANCH   7   9
ENDBRANCH   1   7
BRANCH   2  19
ATOM     19  O2  UNK     1      40.215   0.776  11.540  1.00  0.00    -0.360 OA
ATOM     20  H11 UNK     1      40.303   1.627  11.082  1.00  0.00     0.217 HD
ENDBRANCH   2  19
BRANCH   3  21
ATOM     21  O3  UNK     1      39.777  -1.268   7.219  1.00  0.00    -0.360 OA
ATOM     22  H12 UNK     1      39.937  -2.138   6.814  1.00  0.00     0.217 HD
ENDBRANCH   3  21
BRANCH   6  23
ATOM     23  O4  UNK     1      42.102  -3.519  10.715  1.00  0.00    -0.361 OA
ATOM     24  H13 UNK     1      41.585  -4.322  10.532  1.00  0.00     0.217 HD
ENDBRANCH   6  23
TORSDOF 8
ENDMDL
MODEL 20
REMARK VINA RESULT:      -5.3      2.228      4.115
REMARK  8 active torsions:
REMARK  status: ('A' for Active; 'I' for Inactive)
REMARK    1  A    between atoms: O2_2  and  C8_13 
REMARK    2  A    between atoms: O3_3  and  C9_14 
REMARK    3  A    between atoms: O4_4  and  C14_19 
REMARK    4  A    between atoms: O5_5  and  C15_20 
REMARK    5  A    between atoms: C1_6  and  C2_7 
REMARK    6  A    between atoms: C1_6  and  C3_8 
REMARK    7  A    between atoms: C2_7  and  C4_9 
REMARK    8  A    between atoms: C4_9  and  C5_10 
ROOT
ATOM      1  C5  UNK     1      39.918  -0.234   9.330  1.00  0.00     0.076 A 
ATOM      2  C8  UNK     1      40.165  -1.298   8.462  1.00  0.00     0.085 A 
ATOM      3  C9  UNK     1      40.397  -0.277  10.640  1.00  0.00     0.085 A 
ATOM      4  C10 UNK     1      40.889  -2.405   8.904  1.00  0.00     0.074 A 
ATOM      5  C11 UNK     1      41.121  -1.384  11.082  1.00  0.00     0.074 A 
ATOM      6  C14 UNK     1      41.367  -2.448  10.214  1.00  0.00     0.071 A 
ENDROOT
BRANCH   1   7
ATOM      7  C4  UNK     1      39.161   0.924   8.867  1.00  0.00     0.165 C 
ATOM      8  O1  UNK     1      37.959   1.058   9.168  1.00  0.00    -0.292 OA
BRANCH   7   9
ATOM      9  C2  UNK     1      39.849   1.989   7.997  1.00  0.00     0.088 C 
BRANCH   9  10
ATOM     10  C1  UNK     1      40.846   2.852   8.774  1.00  0.00     0.046 C 
BRANCH  10  11
ATOM     11  C3  UNK     1      42.267   2.578   8.353  1.00  0.00    -0.058 A 
ATOM     12  C6  UNK     1      43.289   3.375   8.845  1.00  0.00     0.010 A 
ATOM     13  C12 UNK     1      44.605   3.121   8.456  1.00  0.00     0.037 A 
ATOM     14  C15 UNK     1      44.882   2.073   7.577  1.00  0.00     0.065 A 
ATOM     15  C13 UNK     1      43.843   1.279   7.088  1.00  0.00     0.037 A 
ATOM     16  C7  UNK     1      42.529   1.533   7.479  1.00  0.00     0.010 A 
BRANCH  14  17
ATOM     17  O5  UNK     1      46.164   1.825   7.198  1.00  0.00    -0.361 OA
ATOM     18  H14 UNK     1      46.379   0.898   7.398  1.00  0.00     0.217 HD
ENDBRANCH  14  17
ENDBRANCH  10  11
ENDBRANCH   9  10
ENDBRANCH   7   9
ENDBRANCH   1   7
BRANCH   2  19
ATOM     19  O2  UNK     1      39.707  -1.276   7.178  1.00  0.00    -0.360 OA
ATOM     20  H11 UNK     1      40.258  -0.696   6.628  1.00  0.00     0.217 HD
ENDBRANCH   2  19
BRANCH   3  21
ATOM     21  O3  UNK     1      40.167   0.752  11.504  1.00  0.00    -0.360 OA
ATOM     22  H12 UNK     1      40.918   0.825  12.118  1.00  0.00     0.217 HD
ENDBRANCH   3  21
BRANCH   6  23
ATOM     23  O4  UNK     1      42.074  -3.528  10.645  1.00  0.00    -0.361 OA
ATOM     24  H13 UNK     1      41.765  -3.771  11.536  1.00  0.00     0.217 HD
ENDBRANCH   6  23
TORSDOF 8
ENDMDL
