MODEL 1
REMARK VINA RESULT:      -8.3      0.000      0.000
REMARK  8 active torsions:
REMARK  status: ('A' for Active; 'I' for Inactive)
REMARK    1  A    between atoms: O2_2  and  C8_13 
REMARK    2  A    between atoms: O3_3  and  C9_14 
REMARK    3  A    between atoms: O4_4  and  C14_19 
REMARK    4  A    between atoms: O5_5  and  C15_20 
REMARK    5  A    between atoms: C1_6  and  C2_7 
REMARK    6  A    between atoms: C1_6  and  C3_8 
REMARK    7  A    between atoms: C2_7  and  C4_9 
REMARK    8  A    between atoms: C4_9  and  C5_10 
ROOT
ATOM      1  C5  UNK     1      40.224  13.120  -1.439  1.00  0.00     0.076 A 
ATOM      2  C8  UNK     1      39.176  12.830  -0.564  1.00  0.00     0.085 A 
ATOM      3  C9  UNK     1      41.387  12.350  -1.412  1.00  0.00     0.085 A 
ATOM      4  C10 UNK     1      39.292  11.772   0.337  1.00  0.00     0.074 A 
ATOM      5  C11 UNK     1      41.503  11.292  -0.512  1.00  0.00     0.074 A 
ATOM      6  C14 UNK     1      40.455  11.002   0.363  1.00  0.00     0.071 A 
ENDROOT
BRANCH   1   7
ATOM      7  C4  UNK     1      40.101  14.226  -2.381  1.00  0.00     0.165 C 
ATOM      8  O1  UNK     1      39.191  14.237  -3.232  1.00  0.00    -0.292 OA
BRANCH   7   9
ATOM      9  C2  UNK     1      41.104  15.391  -2.328  1.00  0.00     0.088 C 
BRANCH   9  10
ATOM     10  C1  UNK     1      40.564  16.683  -2.943  1.00  0.00     0.046 C 
BRANCH  10  11
ATOM     11  C3  UNK     1      39.885  17.549  -1.913  1.00  0.00    -0.058 A 
ATOM     12  C6  UNK     1      39.812  18.919  -2.116  1.00  0.00     0.010 A 
ATOM     13  C12 UNK     1      39.184  19.721  -1.163  1.00  0.00     0.037 A 
ATOM     14  C15 UNK     1      38.637  19.142  -0.016  1.00  0.00     0.065 A 
ATOM     15  C13 UNK     1      38.718  17.763   0.176  1.00  0.00     0.037 A 
ATOM     16  C7  UNK     1      39.345  16.962  -0.778  1.00  0.00     0.010 A 
BRANCH  14  17
ATOM     17  O5  UNK     1      38.023  19.924   0.913  1.00  0.00    -0.361 OA
ATOM     18  H14 UNK     1      38.616  20.656   1.151  1.00  0.00     0.217 HD
ENDBRANCH  14  17
ENDBRANCH  10  11
ENDBRANCH   9  10
ENDBRANCH   7   9
ENDBRANCH   1   7
BRANCH   2  19
ATOM     19  O2  UNK     1      38.031  13.569  -0.573  1.00  0.00    -0.360 OA
ATOM     20  H11 UNK     1      38.221  14.499  -0.373  1.00  0.00     0.217 HD
ENDBRANCH   2  19
BRANCH   3  21
ATOM     21  O3  UNK     1      42.422  12.616  -2.259  1.00  0.00    -0.360 OA
ATOM     22  H12 UNK     1      42.954  13.343  -1.893  1.00  0.00     0.217 HD
ENDBRANCH   3  21
BRANCH   6  23
ATOM     23  O4  UNK     1      40.569   9.970   1.243  1.00  0.00    -0.361 OA
ATOM     24  H13 UNK     1      41.476   9.620   1.201  1.00  0.00     0.217 HD
ENDBRANCH   6  23
TORSDOF 8
ENDMDL
MODEL 2
REMARK VINA RESULT:      -8.3      1.463      6.318
REMARK  8 active torsions:
REMARK  status: ('A' for Active; 'I' for Inactive)
REMARK    1  A    between atoms: O2_2  and  C8_13 
REMARK    2  A    between atoms: O3_3  and  C9_14 
REMARK    3  A    between atoms: O4_4  and  C14_19 
REMARK    4  A    between atoms: O5_5  and  C15_20 
REMARK    5  A    between atoms: C1_6  and  C2_7 
REMARK    6  A    between atoms: C1_6  and  C3_8 
REMARK    7  A    between atoms: C2_7  and  C4_9 
REMARK    8  A    between atoms: C4_9  and  C5_10 
ROOT
ATOM      1  C5  UNK     1      39.862  16.760  -2.149  1.00  0.00     0.076 A 
ATOM      2  C8  UNK     1      39.179  16.882  -0.940  1.00  0.00     0.085 A 
ATOM      3  C9  UNK     1      40.207  17.901  -2.873  1.00  0.00     0.085 A 
ATOM      4  C10 UNK     1      38.840  18.144  -0.454  1.00  0.00     0.074 A 
ATOM      5  C11 UNK     1      39.869  19.164  -2.388  1.00  0.00     0.074 A 
ATOM      6  C14 UNK     1      39.185  19.286  -1.178  1.00  0.00     0.071 A 
ENDROOT
BRANCH   1   7
ATOM      7  C4  UNK     1      40.216  15.439  -2.656  1.00  0.00     0.165 C 
ATOM      8  O1  UNK     1      39.354  14.708  -3.181  1.00  0.00    -0.292 OA
BRANCH   7   9
ATOM      9  C2  UNK     1      41.666  14.939  -2.541  1.00  0.00     0.088 C 
BRANCH   9  10
ATOM     10  C1  UNK     1      42.110  14.701  -1.096  1.00  0.00     0.046 C 
BRANCH  10  11
ATOM     11  C3  UNK     1      41.576  13.399  -0.556  1.00  0.00    -0.058 A 
ATOM     12  C6  UNK     1      40.978  13.374   0.694  1.00  0.00     0.010 A 
ATOM     13  C12 UNK     1      40.483  12.169   1.193  1.00  0.00     0.037 A 
ATOM     14  C15 UNK     1      40.595  11.002   0.437  1.00  0.00     0.065 A 
ATOM     15  C13 UNK     1      41.200  11.041  -0.820  1.00  0.00     0.037 A 
ATOM     16  C7  UNK     1      41.694  12.246  -1.319  1.00  0.00     0.010 A 
BRANCH  14  17
ATOM     17  O5  UNK     1      40.111   9.827   0.923  1.00  0.00    -0.361 OA
ATOM     18  H14 UNK     1      39.661   9.350   0.206  1.00  0.00     0.217 HD
ENDBRANCH  14  17
ENDBRANCH  10  11
ENDBRANCH   9  10
ENDBRANCH   7   9
ENDBRANCH   1   7
BRANCH   2  19
ATOM     19  O2  UNK     1      38.832  15.780  -0.216  1.00  0.00    -0.360 OA
ATOM     20  H11 UNK     1      37.977  15.913   0.223  1.00  0.00     0.217 HD
ENDBRANCH   2  19
BRANCH   3  21
ATOM     21  O3  UNK     1      40.876  17.804  -4.057  1.00  0.00    -0.360 OA
ATOM     22  H12 UNK     1      40.342  18.216  -4.759  1.00  0.00     0.217 HD
ENDBRANCH   3  21
BRANCH   6  23
ATOM     23  O4  UNK     1      38.854  20.518  -0.705  1.00  0.00    -0.361 OA
ATOM     24  H13 UNK     1      38.405  21.016  -1.409  1.00  0.00     0.217 HD
ENDBRANCH   6  23
TORSDOF 8
ENDMDL
MODEL 3
REMARK VINA RESULT:      -8.3      0.016      1.863
REMARK  8 active torsions:
REMARK  status: ('A' for Active; 'I' for Inactive)
REMARK    1  A    between atoms: O2_2  and  C8_13 
REMARK    2  A    between atoms: O3_3  and  C9_14 
REMARK    3  A    between atoms: O4_4  and  C14_19 
REMARK    4  A    between atoms: O5_5  and  C15_20 
REMARK    5  A    between atoms: C1_6  and  C2_7 
REMARK    6  A    between atoms: C1_6  and  C3_8 
REMARK    7  A    between atoms: C2_7  and  C4_9 
REMARK    8  A    between atoms: C4_9  and  C5_10 
ROOT
ATOM      1  C5  UNK     1      40.219  13.117  -1.435  1.00  0.00     0.076 A 
ATOM      2  C8  UNK     1      41.382  12.347  -1.401  1.00  0.00     0.085 A 
ATOM      3  C9  UNK     1      39.168  12.830  -0.564  1.00  0.00     0.085 A 
ATOM      4  C10 UNK     1      41.494  11.291  -0.498  1.00  0.00     0.074 A 
ATOM      5  C11 UNK     1      39.279  11.774   0.339  1.00  0.00     0.074 A 
ATOM      6  C14 UNK     1      40.442  11.004   0.373  1.00  0.00     0.071 A 
ENDROOT
BRANCH   1   7
ATOM      7  C4  UNK     1      40.104  14.222  -2.380  1.00  0.00     0.165 C 
ATOM      8  O1  UNK     1      39.196  14.236  -3.233  1.00  0.00    -0.292 OA
BRANCH   7   9
ATOM      9  C2  UNK     1      41.114  15.381  -2.328  1.00  0.00     0.088 C 
BRANCH   9  10
ATOM     10  C1  UNK     1      40.582  16.675  -2.947  1.00  0.00     0.046 C 
BRANCH  10  11
ATOM     11  C3  UNK     1      39.895  17.541  -1.923  1.00  0.00    -0.058 A 
ATOM     12  C6  UNK     1      39.816  18.909  -2.130  1.00  0.00     0.010 A 
ATOM     13  C12 UNK     1      39.180  19.711  -1.181  1.00  0.00     0.037 A 
ATOM     14  C15 UNK     1      38.631  19.134  -0.035  1.00  0.00     0.065 A 
ATOM     15  C13 UNK     1      38.717  17.755   0.161  1.00  0.00     0.037 A 
ATOM     16  C7  UNK     1      39.353  16.954  -0.788  1.00  0.00     0.010 A 
BRANCH  14  17
ATOM     17  O5  UNK     1      38.009  19.915   0.888  1.00  0.00    -0.361 OA
ATOM     18  H14 UNK     1      38.096  20.846   0.624  1.00  0.00     0.217 HD
ENDBRANCH  14  17
ENDBRANCH  10  11
ENDBRANCH   9  10
ENDBRANCH   7   9
ENDBRANCH   1   7
BRANCH   2  19
ATOM     19  O2  UNK     1      42.422  12.611  -2.243  1.00  0.00    -0.360 OA
ATOM     20  H11 UNK     1      43.236  12.190  -1.923  1.00  0.00     0.217 HD
ENDBRANCH   2  19
BRANCH   3  21
ATOM     21  O3  UNK     1      38.023  13.570  -0.580  1.00  0.00    -0.360 OA
ATOM     22  H12 UNK     1      38.094  14.280   0.082  1.00  0.00     0.217 HD
ENDBRANCH   3  21
BRANCH   6  23
ATOM     23  O4  UNK     1      40.550   9.973   1.254  1.00  0.00    -0.361 OA
ATOM     24  H13 UNK     1      41.334   9.444   1.026  1.00  0.00     0.217 HD
ENDBRANCH   6  23
TORSDOF 8
ENDMDL
MODEL 4
REMARK VINA RESULT:      -8.2      1.454      6.464
REMARK  8 active torsions:
REMARK  status: ('A' for Active; 'I' for Inactive)
REMARK    1  A    between atoms: O2_2  and  C8_13 
REMARK    2  A    between atoms: O3_3  and  C9_14 
REMARK    3  A    between atoms: O4_4  and  C14_19 
REMARK    4  A    between atoms: O5_5  and  C15_20 
REMARK    5  A    between atoms: C1_6  and  C2_7 
REMARK    6  A    between atoms: C1_6  and  C3_8 
REMARK    7  A    between atoms: C2_7  and  C4_9 
REMARK    8  A    between atoms: C4_9  and  C5_10 
ROOT
ATOM      1  C5  UNK     1      39.854  16.735  -2.131  1.00  0.00     0.076 A 
ATOM      2  C8  UNK     1      40.179  17.880  -2.860  1.00  0.00     0.085 A 
ATOM      3  C9  UNK     1      39.177  16.851  -0.917  1.00  0.00     0.085 A 
ATOM      4  C10 UNK     1      39.826  19.139  -2.375  1.00  0.00     0.074 A 
ATOM      5  C11 UNK     1      38.823  18.109  -0.432  1.00  0.00     0.074 A 
ATOM      6  C14 UNK     1      39.149  19.254  -1.161  1.00  0.00     0.071 A 
ENDROOT
BRANCH   1   7
ATOM      7  C4  UNK     1      40.223  15.419  -2.639  1.00  0.00     0.165 C 
ATOM      8  O1  UNK     1      39.364  14.669  -3.142  1.00  0.00    -0.292 OA
BRANCH   7   9
ATOM      9  C2  UNK     1      41.685  14.948  -2.553  1.00  0.00     0.088 C 
BRANCH   9  10
ATOM     10  C1  UNK     1      42.154  14.692  -1.120  1.00  0.00     0.046 C 
BRANCH  10  11
ATOM     11  C3  UNK     1      41.608  13.396  -0.578  1.00  0.00    -0.058 A 
ATOM     12  C6  UNK     1      41.018  13.376   0.677  1.00  0.00     0.010 A 
ATOM     13  C12 UNK     1      40.513  12.176   1.178  1.00  0.00     0.037 A 
ATOM     14  C15 UNK     1      40.605  11.009   0.419  1.00  0.00     0.065 A 
ATOM     15  C13 UNK     1      41.201  11.043  -0.842  1.00  0.00     0.037 A 
ATOM     16  C7  UNK     1      41.706  12.243  -1.343  1.00  0.00     0.010 A 
BRANCH  14  17
ATOM     17  O5  UNK     1      40.111   9.839   0.907  1.00  0.00    -0.361 OA
ATOM     18  H14 UNK     1      40.413   9.727   1.824  1.00  0.00     0.217 HD
ENDBRANCH  14  17
ENDBRANCH  10  11
ENDBRANCH   9  10
ENDBRANCH   7   9
ENDBRANCH   1   7
BRANCH   2  19
ATOM     19  O2  UNK     1      40.840  17.790  -4.048  1.00  0.00    -0.360 OA
ATOM     20  H11 UNK     1      40.264  18.057  -4.782  1.00  0.00     0.217 HD
ENDBRANCH   2  19
BRANCH   3  21
ATOM     21  O3  UNK     1      38.849  15.745  -0.190  1.00  0.00    -0.360 OA
ATOM     22  H12 UNK     1      38.402  15.104  -0.769  1.00  0.00     0.217 HD
ENDBRANCH   3  21
BRANCH   6  23
ATOM     23  O4  UNK     1      38.805  20.483  -0.687  1.00  0.00    -0.361 OA
ATOM     24  H13 UNK     1      39.605  20.931  -0.364  1.00  0.00     0.217 HD
ENDBRANCH   6  23
TORSDOF 8
ENDMDL
MODEL 5
REMARK VINA RESULT:      -7.2      1.628      6.587
REMARK  8 active torsions:
REMARK  status: ('A' for Active; 'I' for Inactive)
REMARK    1  A    between atoms: O2_2  and  C8_13 
REMARK    2  A    between atoms: O3_3  and  C9_14 
REMARK    3  A    between atoms: O4_4  and  C14_19 
REMARK    4  A    between atoms: O5_5  and  C15_20 
REMARK    5  A    between atoms: C1_6  and  C2_7 
REMARK    6  A    between atoms: C1_6  and  C3_8 
REMARK    7  A    between atoms: C2_7  and  C4_9 
REMARK    8  A    between atoms: C4_9  and  C5_10 
ROOT
ATOM      1  C5  UNK     1      39.623  17.916  -1.837  1.00  0.00     0.076 A 
ATOM      2  C8  UNK     1      39.858  19.291  -1.804  1.00  0.00     0.085 A 
ATOM      3  C9  UNK     1      38.821  17.323  -0.862  1.00  0.00     0.085 A 
ATOM      4  C10 UNK     1      39.291  20.072  -0.798  1.00  0.00     0.074 A 
ATOM      5  C11 UNK     1      38.254  18.103   0.145  1.00  0.00     0.074 A 
ATOM      6  C14 UNK     1      38.489  19.479   0.177  1.00  0.00     0.071 A 
ENDROOT
BRANCH   1   7
ATOM      7  C4  UNK     1      40.216  17.100  -2.891  1.00  0.00     0.165 C 
ATOM      8  O1  UNK     1      40.675  17.630  -3.922  1.00  0.00    -0.292 OA
BRANCH   7   9
ATOM      9  C2  UNK     1      40.276  15.572  -2.732  1.00  0.00     0.088 C 
BRANCH   9  10
ATOM     10  C1  UNK     1      41.577  15.080  -2.096  1.00  0.00     0.046 C 
BRANCH  10  11
ATOM     11  C3  UNK     1      41.378  13.787  -1.348  1.00  0.00    -0.058 A 
ATOM     12  C6  UNK     1      41.770  12.593  -1.933  1.00  0.00     0.010 A 
ATOM     13  C12 UNK     1      41.586  11.396  -1.240  1.00  0.00     0.037 A 
ATOM     14  C15 UNK     1      41.010  11.408   0.031  1.00  0.00     0.065 A 
ATOM     15  C13 UNK     1      40.619  12.616   0.609  1.00  0.00     0.037 A 
ATOM     16  C7  UNK     1      40.805  13.813  -0.084  1.00  0.00     0.010 A 
BRANCH  14  17
ATOM     17  O5  UNK     1      40.831  10.241   0.707  1.00  0.00    -0.361 OA
ATOM     18  H14 UNK     1      40.087   9.757   0.311  1.00  0.00     0.217 HD
ENDBRANCH  14  17
ENDBRANCH  10  11
ENDBRANCH   9  10
ENDBRANCH   7   9
ENDBRANCH   1   7
BRANCH   2  19
ATOM     19  O2  UNK     1      40.639  19.891  -2.747  1.00  0.00    -0.360 OA
ATOM     20  H11 UNK     1      40.697  20.847  -2.586  1.00  0.00     0.217 HD
ENDBRANCH   2  19
BRANCH   3  21
ATOM     21  O3  UNK     1      38.578  15.981  -0.876  1.00  0.00    -0.360 OA
ATOM     22  H12 UNK     1      37.675  15.825  -1.201  1.00  0.00     0.217 HD
ENDBRANCH   3  21
BRANCH   6  23
ATOM     23  O4  UNK     1      37.936  20.240   1.160  1.00  0.00    -0.361 OA
ATOM     24  H13 UNK     1      37.012  20.434   0.927  1.00  0.00     0.217 HD
ENDBRANCH   6  23
TORSDOF 8
ENDMDL
MODEL 6
REMARK VINA RESULT:      -6.3      1.468      2.525
REMARK  8 active torsions:
REMARK  status: ('A' for Active; 'I' for Inactive)
REMARK    1  A    between atoms: O2_2  and  C8_13 
REMARK    2  A    between atoms: O3_3  and  C9_14 
REMARK    3  A    between atoms: O4_4  and  C14_19 
REMARK    4  A    between atoms: O5_5  and  C15_20 
REMARK    5  A    between atoms: C1_6  and  C2_7 
REMARK    6  A    between atoms: C1_6  and  C3_8 
REMARK    7  A    between atoms: C2_7  and  C4_9 
REMARK    8  A    between atoms: C4_9  and  C5_10 
ROOT
ATOM      1  C5  UNK     1      40.017  13.406  -0.873  1.00  0.00     0.076 A 
ATOM      2  C8  UNK     1      41.323  13.676  -0.465  1.00  0.00     0.085 A 
ATOM      3  C9  UNK     1      39.301  12.367  -0.278  1.00  0.00     0.085 A 
ATOM      4  C10 UNK     1      41.914  12.906   0.537  1.00  0.00     0.074 A 
ATOM      5  C11 UNK     1      39.891  11.598   0.724  1.00  0.00     0.074 A 
ATOM      6  C14 UNK     1      41.198  11.867   1.132  1.00  0.00     0.071 A 
ENDROOT
BRANCH   1   7
ATOM      7  C4  UNK     1      39.400  14.212  -1.921  1.00  0.00     0.165 C 
ATOM      8  O1  UNK     1      39.905  14.269  -3.058  1.00  0.00    -0.292 OA
BRANCH   7   9
ATOM      9  C2  UNK     1      38.114  15.001  -1.621  1.00  0.00     0.088 C 
BRANCH   9  10
ATOM     10  C1  UNK     1      38.218  15.871  -0.366  1.00  0.00     0.046 C 
BRANCH  10  11
ATOM     11  C3  UNK     1      38.658  17.274  -0.696  1.00  0.00    -0.058 A 
ATOM     12  C6  UNK     1      38.212  18.329   0.085  1.00  0.00     0.010 A 
ATOM     13  C12 UNK     1      38.620  19.628  -0.219  1.00  0.00     0.037 A 
ATOM     14  C15 UNK     1      39.468  19.857  -1.304  1.00  0.00     0.065 A 
ATOM     15  C13 UNK     1      39.909  18.786  -2.082  1.00  0.00     0.037 A 
ATOM     16  C7  UNK     1      39.501  17.488  -1.776  1.00  0.00     0.010 A 
BRANCH  14  17
ATOM     17  O5  UNK     1      39.867  21.123  -1.600  1.00  0.00    -0.361 OA
ATOM     18  H14 UNK     1      40.656  21.081  -2.166  1.00  0.00     0.217 HD
ENDBRANCH  14  17
ENDBRANCH  10  11
ENDBRANCH   9  10
ENDBRANCH   7   9
ENDBRANCH   1   7
BRANCH   2  19
ATOM     19  O2  UNK     1      42.041  14.686  -1.033  1.00  0.00    -0.360 OA
ATOM     20  H11 UNK     1      41.491  15.480  -1.137  1.00  0.00     0.217 HD
ENDBRANCH   2  19
BRANCH   3  21
ATOM     21  O3  UNK     1      38.023  12.088  -0.661  1.00  0.00    -0.360 OA
ATOM     22  H12 UNK     1      37.477  12.886  -0.556  1.00  0.00     0.217 HD
ENDBRANCH   3  21
BRANCH   6  23
ATOM     23  O4  UNK     1      41.774  11.116   2.109  1.00  0.00    -0.361 OA
ATOM     24  H13 UNK     1      41.727  10.178   1.855  1.00  0.00     0.217 HD
ENDBRANCH   6  23
TORSDOF 8
ENDMDL
MODEL 7
REMARK VINA RESULT:      -6.2      9.169     12.144
REMARK  8 active torsions:
REMARK  status: ('A' for Active; 'I' for Inactive)
REMARK    1  A    between atoms: O2_2  and  C8_13 
REMARK    2  A    between atoms: O3_3  and  C9_14 
REMARK    3  A    between atoms: O4_4  and  C14_19 
REMARK    4  A    between atoms: O5_5  and  C15_20 
REMARK    5  A    between atoms: C1_6  and  C2_7 
REMARK    6  A    between atoms: C1_6  and  C3_8 
REMARK    7  A    between atoms: C2_7  and  C4_9 
REMARK    8  A    between atoms: C4_9  and  C5_10 
ROOT
ATOM      1  C5  UNK     1      49.144  12.755  -5.937  1.00  0.00     0.076 A 
ATOM      2  C8  UNK     1      49.793  13.990  -5.947  1.00  0.00     0.085 A 
ATOM      3  C9  UNK     1      48.022  12.563  -5.131  1.00  0.00     0.085 A 
ATOM      4  C10 UNK     1      49.319  15.032  -5.151  1.00  0.00     0.074 A 
ATOM      5  C11 UNK     1      47.548  13.605  -4.336  1.00  0.00     0.074 A 
ATOM      6  C14 UNK     1      48.197  14.841  -4.345  1.00  0.00     0.071 A 
ENDROOT
BRANCH   1   7
ATOM      7  C4  UNK     1      49.640  11.665  -6.770  1.00  0.00     0.165 C 
ATOM      8  O1  UNK     1      49.082  11.385  -7.849  1.00  0.00    -0.292 OA
BRANCH   7   9
ATOM      9  C2  UNK     1      50.862  10.849  -6.315  1.00  0.00     0.088 C 
BRANCH   9  10
ATOM     10  C1  UNK     1      50.549   9.877  -5.176  1.00  0.00     0.046 C 
BRANCH  10  11
ATOM     11  C3  UNK     1      50.939  10.445  -3.835  1.00  0.00    -0.058 A 
ATOM     12  C6  UNK     1      52.239  10.882  -3.632  1.00  0.00     0.010 A 
ATOM     13  C12 UNK     1      52.600  11.409  -2.392  1.00  0.00     0.037 A 
ATOM     14  C15 UNK     1      51.656  11.490  -1.367  1.00  0.00     0.065 A 
ATOM     15  C13 UNK     1      50.351  11.046  -1.585  1.00  0.00     0.037 A 
ATOM     16  C7  UNK     1      49.991  10.521  -2.825  1.00  0.00     0.010 A 
BRANCH  14  17
ATOM     17  O5  UNK     1      52.007  12.005  -0.158  1.00  0.00    -0.361 OA
ATOM     18  H14 UNK     1      51.625  11.451   0.544  1.00  0.00     0.217 HD
ENDBRANCH  14  17
ENDBRANCH  10  11
ENDBRANCH   9  10
ENDBRANCH   7   9
ENDBRANCH   1   7
BRANCH   2  19
ATOM     19  O2  UNK     1      50.891  14.199  -6.727  1.00  0.00    -0.360 OA
ATOM     20  H11 UNK     1      51.705  14.058  -6.218  1.00  0.00     0.217 HD
ENDBRANCH   2  19
BRANCH   3  21
ATOM     21  O3  UNK     1      47.373  11.364  -5.107  1.00  0.00    -0.360 OA
ATOM     22  H12 UNK     1      46.747  11.326  -5.851  1.00  0.00     0.217 HD
ENDBRANCH   3  21
BRANCH   6  23
ATOM     23  O4  UNK     1      47.735  15.858  -3.568  1.00  0.00    -0.361 OA
ATOM     24  H13 UNK     1      47.868  15.625  -2.633  1.00  0.00     0.217 HD
ENDBRANCH   6  23
TORSDOF 8
ENDMDL
MODEL 8
REMARK VINA RESULT:      -6.2      9.181     12.080
REMARK  8 active torsions:
REMARK  status: ('A' for Active; 'I' for Inactive)
REMARK    1  A    between atoms: O2_2  and  C8_13 
REMARK    2  A    between atoms: O3_3  and  C9_14 
REMARK    3  A    between atoms: O4_4  and  C14_19 
REMARK    4  A    between atoms: O5_5  and  C15_20 
REMARK    5  A    between atoms: C1_6  and  C2_7 
REMARK    6  A    between atoms: C1_6  and  C3_8 
REMARK    7  A    between atoms: C2_7  and  C4_9 
REMARK    8  A    between atoms: C4_9  and  C5_10 
ROOT
ATOM      1  C5  UNK     1      49.139  12.755  -5.928  1.00  0.00     0.076 A 
ATOM      2  C8  UNK     1      48.023  12.549  -5.116  1.00  0.00     0.085 A 
ATOM      3  C9  UNK     1      49.773  13.997  -5.939  1.00  0.00     0.085 A 
ATOM      4  C10 UNK     1      47.543  13.585  -4.315  1.00  0.00     0.074 A 
ATOM      5  C11 UNK     1      49.294  15.033  -5.139  1.00  0.00     0.074 A 
ATOM      6  C14 UNK     1      48.178  14.827  -4.326  1.00  0.00     0.071 A 
ENDROOT
BRANCH   1   7
ATOM      7  C4  UNK     1      49.640  11.670  -6.765  1.00  0.00     0.165 C 
ATOM      8  O1  UNK     1      49.074  11.381  -7.837  1.00  0.00    -0.292 OA
BRANCH   7   9
ATOM      9  C2  UNK     1      50.878  10.872  -6.321  1.00  0.00     0.088 C 
BRANCH   9  10
ATOM     10  C1  UNK     1      50.587   9.889  -5.185  1.00  0.00     0.046 C 
BRANCH  10  11
ATOM     11  C3  UNK     1      50.979  10.454  -3.844  1.00  0.00    -0.058 A 
ATOM     12  C6  UNK     1      50.038  10.512  -2.828  1.00  0.00     0.010 A 
ATOM     13  C12 UNK     1      50.401  11.036  -1.586  1.00  0.00     0.037 A 
ATOM     14  C15 UNK     1      51.701  11.497  -1.377  1.00  0.00     0.065 A 
ATOM     15  C13 UNK     1      52.638  11.434  -2.409  1.00  0.00     0.037 A 
ATOM     16  C7  UNK     1      52.275  10.910  -3.649  1.00  0.00     0.010 A 
BRANCH  14  17
ATOM     17  O5  UNK     1      52.055  12.006  -0.166  1.00  0.00    -0.361 OA
ATOM     18  H14 UNK     1      52.585  11.346   0.311  1.00  0.00     0.217 HD
ENDBRANCH  14  17
ENDBRANCH  10  11
ENDBRANCH   9  10
ENDBRANCH   7   9
ENDBRANCH   1   7
BRANCH   2  19
ATOM     19  O2  UNK     1      47.388  11.343  -5.089  1.00  0.00    -0.360 OA
ATOM     20  H11 UNK     1      46.447  11.457  -4.879  1.00  0.00     0.217 HD
ENDBRANCH   2  19
BRANCH   3  21
ATOM     21  O3  UNK     1      50.865  14.218  -6.725  1.00  0.00    -0.360 OA
ATOM     22  H12 UNK     1      50.719  13.809  -7.595  1.00  0.00     0.217 HD
ENDBRANCH   3  21
BRANCH   6  23
ATOM     23  O4  UNK     1      47.709  15.838  -3.546  1.00  0.00    -0.361 OA
ATOM     24  H13 UNK     1      46.802  16.056  -3.822  1.00  0.00     0.217 HD
ENDBRANCH   6  23
TORSDOF 8
ENDMDL
MODEL 9
REMARK VINA RESULT:      -6.2      9.176     12.052
REMARK  8 active torsions:
REMARK  status: ('A' for Active; 'I' for Inactive)
REMARK    1  A    between atoms: O2_2  and  C8_13 
REMARK    2  A    between atoms: O3_3  and  C9_14 
REMARK    3  A    between atoms: O4_4  and  C14_19 
REMARK    4  A    between atoms: O5_5  and  C15_20 
REMARK    5  A    between atoms: C1_6  and  C2_7 
REMARK    6  A    between atoms: C1_6  and  C3_8 
REMARK    7  A    between atoms: C2_7  and  C4_9 
REMARK    8  A    between atoms: C4_9  and  C5_10 
ROOT
ATOM      1  C5  UNK     1      49.132  12.757  -5.922  1.00  0.00     0.076 A 
ATOM      2  C8  UNK     1      48.021  12.550  -5.105  1.00  0.00     0.085 A 
ATOM      3  C9  UNK     1      49.765  14.000  -5.936  1.00  0.00     0.085 A 
ATOM      4  C10 UNK     1      47.541  13.586  -4.304  1.00  0.00     0.074 A 
ATOM      5  C11 UNK     1      49.287  15.036  -5.134  1.00  0.00     0.074 A 
ATOM      6  C14 UNK     1      48.174  14.829  -4.318  1.00  0.00     0.071 A 
ENDROOT
BRANCH   1   7
ATOM      7  C4  UNK     1      49.633  11.673  -6.760  1.00  0.00     0.165 C 
ATOM      8  O1  UNK     1      49.063  11.383  -7.830  1.00  0.00    -0.292 OA
BRANCH   7   9
ATOM      9  C2  UNK     1      50.873  10.877  -6.320  1.00  0.00     0.088 C 
BRANCH   9  10
ATOM     10  C1  UNK     1      50.586   9.890  -5.186  1.00  0.00     0.046 C 
BRANCH  10  11
ATOM     11  C3  UNK     1      50.979  10.454  -3.845  1.00  0.00    -0.058 A 
ATOM     12  C6  UNK     1      52.273  10.909  -3.649  1.00  0.00     0.010 A 
ATOM     13  C12 UNK     1      52.636  11.432  -2.407  1.00  0.00     0.037 A 
ATOM     14  C15 UNK     1      51.699  11.491  -1.374  1.00  0.00     0.065 A 
ATOM     15  C13 UNK     1      50.400  11.029  -1.585  1.00  0.00     0.037 A 
ATOM     16  C7  UNK     1      50.037  10.508  -2.826  1.00  0.00     0.010 A 
BRANCH  14  17
ATOM     17  O5  UNK     1      52.053  12.002  -0.164  1.00  0.00    -0.361 OA
ATOM     18  H14 UNK     1      51.488  11.608   0.522  1.00  0.00     0.217 HD
ENDBRANCH  14  17
ENDBRANCH  10  11
ENDBRANCH   9  10
ENDBRANCH   7   9
ENDBRANCH   1   7
BRANCH   2  19
ATOM     19  O2  UNK     1      47.387  11.343  -5.076  1.00  0.00    -0.360 OA
ATOM     20  H11 UNK     1      46.728  11.285  -5.786  1.00  0.00     0.217 HD
ENDBRANCH   2  19
BRANCH   3  21
ATOM     21  O3  UNK     1      50.853  14.223  -6.726  1.00  0.00    -0.360 OA
ATOM     22  H12 UNK     1      51.642  13.854  -6.293  1.00  0.00     0.217 HD
ENDBRANCH   3  21
BRANCH   6  23
ATOM     23  O4  UNK     1      47.707  15.840  -3.536  1.00  0.00    -0.361 OA
ATOM     24  H13 UNK     1      47.190  16.451  -4.088  1.00  0.00     0.217 HD
ENDBRANCH   6  23
TORSDOF 8
ENDMDL
MODEL 10
REMARK VINA RESULT:      -6.1      9.088     11.624
REMARK  8 active torsions:
REMARK  status: ('A' for Active; 'I' for Inactive)
REMARK    1  A    between atoms: O2_2  and  C8_13 
REMARK    2  A    between atoms: O3_3  and  C9_14 
REMARK    3  A    between atoms: O4_4  and  C14_19 
REMARK    4  A    between atoms: O5_5  and  C15_20 
REMARK    5  A    between atoms: C1_6  and  C2_7 
REMARK    6  A    between atoms: C1_6  and  C3_8 
REMARK    7  A    between atoms: C2_7  and  C4_9 
REMARK    8  A    between atoms: C4_9  and  C5_10 
ROOT
ATOM      1  C5  UNK     1      49.161  12.803  -5.960  1.00  0.00     0.076 A 
ATOM      2  C8  UNK     1      49.733  14.075  -6.009  1.00  0.00     0.085 A 
ATOM      3  C9  UNK     1      48.105  12.548  -5.085  1.00  0.00     0.085 A 
ATOM      4  C10 UNK     1      49.251  15.089  -5.183  1.00  0.00     0.074 A 
ATOM      5  C11 UNK     1      47.622  13.562  -4.260  1.00  0.00     0.074 A 
ATOM      6  C14 UNK     1      48.195  14.834  -4.308  1.00  0.00     0.071 A 
ENDROOT
BRANCH   1   7
ATOM      7  C4  UNK     1      49.667  11.743  -6.825  1.00  0.00     0.165 C 
ATOM      8  O1  UNK     1      50.675  11.086  -6.501  1.00  0.00    -0.292 OA
BRANCH   7   9
ATOM      9  C2  UNK     1      48.953  11.432  -8.151  1.00  0.00     0.088 C 
BRANCH   9  10
ATOM     10  C1  UNK     1      48.329  10.036  -8.188  1.00  0.00     0.046 C 
BRANCH  10  11
ATOM     11  C3  UNK     1      46.853  10.093  -8.491  1.00  0.00    -0.058 A 
ATOM     12  C6  UNK     1      46.244   9.017  -9.118  1.00  0.00     0.010 A 
ATOM     13  C12 UNK     1      44.878   9.070  -9.398  1.00  0.00     0.037 A 
ATOM     14  C15 UNK     1      44.138  10.201  -9.049  1.00  0.00     0.065 A 
ATOM     15  C13 UNK     1      44.764  11.277  -8.420  1.00  0.00     0.037 A 
ATOM     16  C7  UNK     1      46.129  11.223  -8.139  1.00  0.00     0.010 A 
BRANCH  14  17
ATOM     17  O5  UNK     1      42.806  10.252  -9.321  1.00  0.00    -0.361 OA
ATOM     18  H14 UNK     1      42.684  10.483 -10.258  1.00  0.00     0.217 HD
ENDBRANCH  14  17
ENDBRANCH  10  11
ENDBRANCH   9  10
ENDBRANCH   7   9
ENDBRANCH   1   7
BRANCH   2  19
ATOM     19  O2  UNK     1      50.766  14.347  -6.857  1.00  0.00    -0.360 OA
ATOM     20  H11 UNK     1      50.623  15.192  -7.311  1.00  0.00     0.217 HD
ENDBRANCH   2  19
BRANCH   3  21
ATOM     21  O3  UNK     1      47.531  11.312  -5.023  1.00  0.00    -0.360 OA
ATOM     22  H12 UNK     1      48.225  10.635  -5.101  1.00  0.00     0.217 HD
ENDBRANCH   3  21
BRANCH   6  23
ATOM     23  O4  UNK     1      47.723  15.823  -3.502  1.00  0.00    -0.361 OA
ATOM     24  H13 UNK     1      46.759  15.726  -3.414  1.00  0.00     0.217 HD
ENDBRANCH   6  23
TORSDOF 8
ENDMDL
MODEL 11
REMARK VINA RESULT:      -6.1      9.093     11.595
REMARK  8 active torsions:
REMARK  status: ('A' for Active; 'I' for Inactive)
REMARK    1  A    between atoms: O2_2  and  C8_13 
REMARK    2  A    between atoms: O3_3  and  C9_14 
REMARK    3  A    between atoms: O4_4  and  C14_19 
REMARK    4  A    between atoms: O5_5  and  C15_20 
REMARK    5  A    between atoms: C1_6  and  C2_7 
REMARK    6  A    between atoms: C1_6  and  C3_8 
REMARK    7  A    between atoms: C2_7  and  C4_9 
REMARK    8  A    between atoms: C4_9  and  C5_10 
ROOT
ATOM      1  C5  UNK     1      49.168  12.797  -5.956  1.00  0.00     0.076 A 
ATOM      2  C8  UNK     1      49.733  14.072  -6.013  1.00  0.00     0.085 A 
ATOM      3  C9  UNK     1      48.117  12.540  -5.076  1.00  0.00     0.085 A 
ATOM      4  C10 UNK     1      49.248  15.087  -5.189  1.00  0.00     0.074 A 
ATOM      5  C11 UNK     1      47.631  13.555  -4.253  1.00  0.00     0.074 A 
ATOM      6  C14 UNK     1      48.197  14.829  -4.309  1.00  0.00     0.071 A 
ENDROOT
BRANCH   1   7
ATOM      7  C4  UNK     1      49.677  11.736  -6.818  1.00  0.00     0.165 C 
ATOM      8  O1  UNK     1      50.692  11.089  -6.496  1.00  0.00    -0.292 OA
BRANCH   7   9
ATOM      9  C2  UNK     1      48.957  11.412  -8.138  1.00  0.00     0.088 C 
BRANCH   9  10
ATOM     10  C1  UNK     1      48.316  10.023  -8.151  1.00  0.00     0.046 C 
BRANCH  10  11
ATOM     11  C3  UNK     1      46.844  10.091  -8.469  1.00  0.00    -0.058 A 
ATOM     12  C6  UNK     1      46.123  11.222  -8.116  1.00  0.00     0.010 A 
ATOM     13  C12 UNK     1      44.760  11.285  -8.410  1.00  0.00     0.037 A 
ATOM     14  C15 UNK     1      44.135  10.215  -9.052  1.00  0.00     0.065 A 
ATOM     15  C13 UNK     1      44.872   9.084  -9.401  1.00  0.00     0.037 A 
ATOM     16  C7  UNK     1      46.234   9.021  -9.107  1.00  0.00     0.010 A 
BRANCH  14  17
ATOM     17  O5  UNK     1      42.807  10.278  -9.340  1.00  0.00    -0.361 OA
ATOM     18  H14 UNK     1      42.657  10.989  -9.985  1.00  0.00     0.217 HD
ENDBRANCH  14  17
ENDBRANCH  10  11
ENDBRANCH   9  10
ENDBRANCH   7   9
ENDBRANCH   1   7
BRANCH   2  19
ATOM     19  O2  UNK     1      50.761  14.346  -6.865  1.00  0.00    -0.360 OA
ATOM     20  H11 UNK     1      51.147  13.525  -7.211  1.00  0.00     0.217 HD
ENDBRANCH   2  19
BRANCH   3  21
ATOM     21  O3  UNK     1      47.550  11.301  -5.005  1.00  0.00    -0.360 OA
ATOM     22  H12 UNK     1      46.803  11.258  -5.627  1.00  0.00     0.217 HD
ENDBRANCH   3  21
BRANCH   6  23
ATOM     23  O4  UNK     1      47.723  15.820  -3.505  1.00  0.00    -0.361 OA
ATOM     24  H13 UNK     1      46.775  15.943  -3.683  1.00  0.00     0.217 HD
ENDBRANCH   6  23
TORSDOF 8
ENDMDL
MODEL 12
REMARK VINA RESULT:      -6.1      9.087     11.523
REMARK  8 active torsions:
REMARK  status: ('A' for Active; 'I' for Inactive)
REMARK    1  A    between atoms: O2_2  and  C8_13 
REMARK    2  A    between atoms: O3_3  and  C9_14 
REMARK    3  A    between atoms: O4_4  and  C14_19 
REMARK    4  A    between atoms: O5_5  and  C15_20 
REMARK    5  A    between atoms: C1_6  and  C2_7 
REMARK    6  A    between atoms: C1_6  and  C3_8 
REMARK    7  A    between atoms: C2_7  and  C4_9 
REMARK    8  A    between atoms: C4_9  and  C5_10 
ROOT
ATOM      1  C5  UNK     1      49.159  12.810  -5.959  1.00  0.00     0.076 A 
ATOM      2  C8  UNK     1      48.108  12.549  -5.080  1.00  0.00     0.085 A 
ATOM      3  C9  UNK     1      49.729  14.083  -6.005  1.00  0.00     0.085 A 
ATOM      4  C10 UNK     1      47.626  13.560  -4.249  1.00  0.00     0.074 A 
ATOM      5  C11 UNK     1      49.248  15.093  -5.174  1.00  0.00     0.074 A 
ATOM      6  C14 UNK     1      48.195  14.832  -4.295  1.00  0.00     0.071 A 
ENDROOT
BRANCH   1   7
ATOM      7  C4  UNK     1      49.663  11.752  -6.827  1.00  0.00     0.165 C 
ATOM      8  O1  UNK     1      50.674  11.097  -6.509  1.00  0.00    -0.292 OA
BRANCH   7   9
ATOM      9  C2  UNK     1      48.943  11.442  -8.151  1.00  0.00     0.088 C 
BRANCH   9  10
ATOM     10  C1  UNK     1      48.319  10.045  -8.186  1.00  0.00     0.046 C 
BRANCH  10  11
ATOM     11  C3  UNK     1      46.844  10.102  -8.489  1.00  0.00    -0.058 A 
ATOM     12  C6  UNK     1      46.238   9.031  -9.127  1.00  0.00     0.010 A 
ATOM     13  C12 UNK     1      44.872   9.083  -9.407  1.00  0.00     0.037 A 
ATOM     14  C15 UNK     1      44.128  10.208  -9.048  1.00  0.00     0.065 A 
ATOM     15  C13 UNK     1      44.751  11.279  -8.407  1.00  0.00     0.037 A 
ATOM     16  C7  UNK     1      46.116  11.226  -8.126  1.00  0.00     0.010 A 
BRANCH  14  17
ATOM     17  O5  UNK     1      42.797  10.258  -9.320  1.00  0.00    -0.361 OA
ATOM     18  H14 UNK     1      42.334  10.655  -8.562  1.00  0.00     0.217 HD
ENDBRANCH  14  17
ENDBRANCH  10  11
ENDBRANCH   9  10
ENDBRANCH   7   9
ENDBRANCH   1   7
BRANCH   2  19
ATOM     19  O2  UNK     1      47.536  11.313  -5.018  1.00  0.00    -0.360 OA
ATOM     20  H11 UNK     1      47.494  11.001  -4.100  1.00  0.00     0.217 HD
ENDBRANCH   2  19
BRANCH   3  21
ATOM     21  O3  UNK     1      50.758  14.359  -6.856  1.00  0.00    -0.360 OA
ATOM     22  H12 UNK     1      50.870  15.323  -6.917  1.00  0.00     0.217 HD
ENDBRANCH   3  21
BRANCH   6  23
ATOM     23  O4  UNK     1      47.725  15.819  -3.485  1.00  0.00    -0.361 OA
ATOM     24  H13 UNK     1      46.833  16.071  -3.780  1.00  0.00     0.217 HD
ENDBRANCH   6  23
TORSDOF 8
ENDMDL
MODEL 13
REMARK VINA RESULT:      -5.9      9.324     11.543
REMARK  8 active torsions:
REMARK  status: ('A' for Active; 'I' for Inactive)
REMARK    1  A    between atoms: O2_2  and  C8_13 
REMARK    2  A    between atoms: O3_3  and  C9_14 
REMARK    3  A    between atoms: O4_4  and  C14_19 
REMARK    4  A    between atoms: O5_5  and  C15_20 
REMARK    5  A    between atoms: C1_6  and  C2_7 
REMARK    6  A    between atoms: C1_6  and  C3_8 
REMARK    7  A    between atoms: C2_7  and  C4_9 
REMARK    8  A    between atoms: C4_9  and  C5_10 
ROOT
ATOM      1  C5  UNK     1      50.600  10.541  -5.681  1.00  0.00     0.076 A 
ATOM      2  C8  UNK     1      51.639  11.383  -5.282  1.00  0.00     0.085 A 
ATOM      3  C9  UNK     1      49.741   9.994  -4.728  1.00  0.00     0.085 A 
ATOM      4  C10 UNK     1      51.819  11.676  -3.930  1.00  0.00     0.074 A 
ATOM      5  C11 UNK     1      49.920  10.287  -3.377  1.00  0.00     0.074 A 
ATOM      6  C14 UNK     1      50.960  11.129  -2.977  1.00  0.00     0.071 A 
ENDROOT
BRANCH   1   7
ATOM      7  C4  UNK     1      50.413  10.236  -7.095  1.00  0.00     0.165 C 
ATOM      8  O1  UNK     1      50.651   9.094  -7.534  1.00  0.00    -0.292 OA
BRANCH   7   9
ATOM      9  C2  UNK     1      49.921  11.331  -8.055  1.00  0.00     0.088 C 
BRANCH   9  10
ATOM     10  C1  UNK     1      48.492  11.795  -7.762  1.00  0.00     0.046 C 
BRANCH  10  11
ATOM     11  C3  UNK     1      48.440  12.719  -6.572  1.00  0.00    -0.058 A 
ATOM     12  C6  UNK     1      49.235  13.854  -6.555  1.00  0.00     0.010 A 
ATOM     13  C12 UNK     1      49.186  14.710  -5.454  1.00  0.00     0.037 A 
ATOM     14  C15 UNK     1      48.342  14.418  -4.381  1.00  0.00     0.065 A 
ATOM     15  C13 UNK     1      47.547  13.271  -4.411  1.00  0.00     0.037 A 
ATOM     16  C7  UNK     1      47.596  12.417  -5.513  1.00  0.00     0.010 A 
BRANCH  14  17
ATOM     17  O5  UNK     1      48.293  15.252  -3.308  1.00  0.00    -0.361 OA
ATOM     18  H14 UNK     1      48.223  16.169  -3.624  1.00  0.00     0.217 HD
ENDBRANCH  14  17
ENDBRANCH  10  11
ENDBRANCH   9  10
ENDBRANCH   7   9
ENDBRANCH   1   7
BRANCH   2  19
ATOM     19  O2  UNK     1      52.490  11.929  -6.196  1.00  0.00    -0.360 OA
ATOM     20  H11 UNK     1      53.158  12.479  -5.756  1.00  0.00     0.217 HD
ENDBRANCH   2  19
BRANCH   3  21
ATOM     21  O3  UNK     1      48.719   9.170  -5.097  1.00  0.00    -0.360 OA
ATOM     22  H12 UNK     1      47.872   9.598  -4.882  1.00  0.00     0.217 HD
ENDBRANCH   3  21
BRANCH   6  23
ATOM     23  O4  UNK     1      51.135  11.414  -1.658  1.00  0.00    -0.361 OA
ATOM     24  H13 UNK     1      50.345  11.876  -1.328  1.00  0.00     0.217 HD
ENDBRANCH   6  23
TORSDOF 8
ENDMDL
MODEL 14
REMARK VINA RESULT:      -5.9      9.327     11.442
REMARK  8 active torsions:
REMARK  status: ('A' for Active; 'I' for Inactive)
REMARK    1  A    between atoms: O2_2  and  C8_13 
REMARK    2  A    between atoms: O3_3  and  C9_14 
REMARK    3  A    between atoms: O4_4  and  C14_19 
REMARK    4  A    between atoms: O5_5  and  C15_20 
REMARK    5  A    between atoms: C1_6  and  C2_7 
REMARK    6  A    between atoms: C1_6  and  C3_8 
REMARK    7  A    between atoms: C2_7  and  C4_9 
REMARK    8  A    between atoms: C4_9  and  C5_10 
ROOT
ATOM      1  C5  UNK     1      50.618  10.538  -5.639  1.00  0.00     0.076 A 
ATOM      2  C8  UNK     1      49.748   9.998  -4.692  1.00  0.00     0.085 A 
ATOM      3  C9  UNK     1      51.659  11.373  -5.232  1.00  0.00     0.085 A 
ATOM      4  C10 UNK     1      49.918  10.292  -3.340  1.00  0.00     0.074 A 
ATOM      5  C11 UNK     1      51.830  11.667  -3.880  1.00  0.00     0.074 A 
ATOM      6  C14 UNK     1      50.959  11.127  -2.933  1.00  0.00     0.071 A 
ENDROOT
BRANCH   1   7
ATOM      7  C4  UNK     1      50.439  10.230  -7.053  1.00  0.00     0.165 C 
ATOM      8  O1  UNK     1      50.667   9.083  -7.487  1.00  0.00    -0.292 OA
BRANCH   7   9
ATOM      9  C2  UNK     1      49.968  11.327  -8.022  1.00  0.00     0.088 C 
BRANCH   9  10
ATOM     10  C1  UNK     1      48.538  11.800  -7.752  1.00  0.00     0.046 C 
BRANCH  10  11
ATOM     11  C3  UNK     1      48.473  12.725  -6.564  1.00  0.00    -0.058 A 
ATOM     12  C6  UNK     1      49.269  13.859  -6.538  1.00  0.00     0.010 A 
ATOM     13  C12 UNK     1      49.208  14.716  -5.438  1.00  0.00     0.037 A 
ATOM     14  C15 UNK     1      48.351  14.426  -4.375  1.00  0.00     0.065 A 
ATOM     15  C13 UNK     1      47.555  13.281  -4.414  1.00  0.00     0.037 A 
ATOM     16  C7  UNK     1      47.616  12.425  -5.514  1.00  0.00     0.010 A 
BRANCH  14  17
ATOM     17  O5  UNK     1      48.290  15.262  -3.304  1.00  0.00    -0.361 OA
ATOM     18  H14 UNK     1      47.479  15.794  -3.365  1.00  0.00     0.217 HD
ENDBRANCH  14  17
ENDBRANCH  10  11
ENDBRANCH   9  10
ENDBRANCH   7   9
ENDBRANCH   1   7
BRANCH   2  19
ATOM     19  O2  UNK     1      48.724   9.179  -5.068  1.00  0.00    -0.360 OA
ATOM     20  H11 UNK     1      48.056   9.122  -4.366  1.00  0.00     0.217 HD
ENDBRANCH   2  19
BRANCH   3  21
ATOM     21  O3  UNK     1      52.521  11.911  -6.141  1.00  0.00    -0.360 OA
ATOM     22  H12 UNK     1      53.000  12.650  -5.727  1.00  0.00     0.217 HD
ENDBRANCH   3  21
BRANCH   6  23
ATOM     23  O4  UNK     1      51.125  11.415  -1.614  1.00  0.00    -0.361 OA
ATOM     24  H13 UNK     1      52.004  11.811  -1.486  1.00  0.00     0.217 HD
ENDBRANCH   6  23
TORSDOF 8
ENDMDL
MODEL 15
REMARK VINA RESULT:      -5.9      1.467      1.923
REMARK  8 active torsions:
REMARK  status: ('A' for Active; 'I' for Inactive)
REMARK    1  A    between atoms: O2_2  and  C8_13 
REMARK    2  A    between atoms: O3_3  and  C9_14 
REMARK    3  A    between atoms: O4_4  and  C14_19 
REMARK    4  A    between atoms: O5_5  and  C15_20 
REMARK    5  A    between atoms: C1_6  and  C2_7 
REMARK    6  A    between atoms: C1_6  and  C3_8 
REMARK    7  A    between atoms: C2_7  and  C4_9 
REMARK    8  A    between atoms: C4_9  and  C5_10 
ROOT
ATOM      1  C5  UNK     1      40.004  13.433  -0.892  1.00  0.00     0.076 A 
ATOM      2  C8  UNK     1      39.288  12.394  -0.296  1.00  0.00     0.085 A 
ATOM      3  C9  UNK     1      41.312  13.700  -0.487  1.00  0.00     0.085 A 
ATOM      4  C10 UNK     1      39.880  11.624   0.705  1.00  0.00     0.074 A 
ATOM      5  C11 UNK     1      41.904  12.930   0.514  1.00  0.00     0.074 A 
ATOM      6  C14 UNK     1      41.187  11.892   1.110  1.00  0.00     0.071 A 
ENDROOT
BRANCH   1   7
ATOM      7  C4  UNK     1      39.385  14.237  -1.939  1.00  0.00     0.165 C 
ATOM      8  O1  UNK     1      39.884  14.288  -3.080  1.00  0.00    -0.292 OA
BRANCH   7   9
ATOM      9  C2  UNK     1      38.105  15.034  -1.635  1.00  0.00     0.088 C 
BRANCH   9  10
ATOM     10  C1  UNK     1      38.214  15.894  -0.375  1.00  0.00     0.046 C 
BRANCH  10  11
ATOM     11  C3  UNK     1      38.681  17.291  -0.692  1.00  0.00    -0.058 A 
ATOM     12  C6  UNK     1      39.466  17.509  -1.814  1.00  0.00     0.010 A 
ATOM     13  C12 UNK     1      39.899  18.803  -2.108  1.00  0.00     0.037 A 
ATOM     14  C15 UNK     1      39.542  19.864  -1.275  1.00  0.00     0.065 A 
ATOM     15  C13 UNK     1      38.752  19.631  -0.149  1.00  0.00     0.037 A 
ATOM     16  C7  UNK     1      38.319  18.338   0.144  1.00  0.00     0.010 A 
BRANCH  14  17
ATOM     17  O5  UNK     1      39.962  21.125  -1.563  1.00  0.00    -0.361 OA
ATOM     18  H14 UNK     1      39.508  21.751  -0.975  1.00  0.00     0.217 HD
ENDBRANCH  14  17
ENDBRANCH  10  11
ENDBRANCH   9  10
ENDBRANCH   7   9
ENDBRANCH   1   7
BRANCH   2  19
ATOM     19  O2  UNK     1      38.009  12.115  -0.677  1.00  0.00    -0.360 OA
ATOM     20  H11 UNK     1      37.428  12.049   0.098  1.00  0.00     0.217 HD
ENDBRANCH   2  19
BRANCH   3  21
ATOM     21  O3  UNK     1      42.029  14.710  -1.057  1.00  0.00    -0.360 OA
ATOM     22  H12 UNK     1      42.425  14.390  -1.886  1.00  0.00     0.217 HD
ENDBRANCH   3  21
BRANCH   6  23
ATOM     23  O4  UNK     1      41.765  11.141   2.087  1.00  0.00    -0.361 OA
ATOM     24  H13 UNK     1      42.619  11.540   2.327  1.00  0.00     0.217 HD
ENDBRANCH   6  23
TORSDOF 8
ENDMDL
MODEL 16
REMARK VINA RESULT:      -5.8      9.568     10.746
REMARK  8 active torsions:
REMARK  status: ('A' for Active; 'I' for Inactive)
REMARK    1  A    between atoms: O2_2  and  C8_13 
REMARK    2  A    between atoms: O3_3  and  C9_14 
REMARK    3  A    between atoms: O4_4  and  C14_19 
REMARK    4  A    between atoms: O5_5  and  C15_20 
REMARK    5  A    between atoms: C1_6  and  C2_7 
REMARK    6  A    between atoms: C1_6  and  C3_8 
REMARK    7  A    between atoms: C2_7  and  C4_9 
REMARK    8  A    between atoms: C4_9  and  C5_10 
ROOT
ATOM      1  C5  UNK     1      44.550  10.275  -9.886  1.00  0.00     0.076 A 
ATOM      2  C8  UNK     1      43.412  10.808 -10.491  1.00  0.00     0.085 A 
ATOM      3  C9  UNK     1      44.605   8.915  -9.581  1.00  0.00     0.085 A 
ATOM      4  C10 UNK     1      42.329   9.983 -10.789  1.00  0.00     0.074 A 
ATOM      5  C11 UNK     1      43.522   8.089  -9.879  1.00  0.00     0.074 A 
ATOM      6  C14 UNK     1      42.383   8.623 -10.484  1.00  0.00     0.071 A 
ENDROOT
BRANCH   1   7
ATOM      7  C4  UNK     1      45.683  11.140  -9.575  1.00  0.00     0.165 C 
ATOM      8  O1  UNK     1      46.487  11.478 -10.465  1.00  0.00    -0.292 OA
BRANCH   7   9
ATOM      9  C2  UNK     1      45.891  11.639  -8.136  1.00  0.00     0.088 C 
BRANCH   9  10
ATOM     10  C1  UNK     1      47.274  11.302  -7.573  1.00  0.00     0.046 C 
BRANCH  10  11
ATOM     11  C3  UNK     1      47.658  12.228  -6.448  1.00  0.00    -0.058 A 
ATOM     12  C6  UNK     1      48.164  13.485  -6.742  1.00  0.00     0.010 A 
ATOM     13  C12 UNK     1      48.519  14.342  -5.700  1.00  0.00     0.037 A 
ATOM     14  C15 UNK     1      48.366  13.931  -4.375  1.00  0.00     0.065 A 
ATOM     15  C13 UNK     1      47.857  12.663  -4.093  1.00  0.00     0.037 A 
ATOM     16  C7  UNK     1      47.501  11.807  -5.135  1.00  0.00     0.010 A 
BRANCH  14  17
ATOM     17  O5  UNK     1      48.712  14.767  -3.359  1.00  0.00    -0.361 OA
ATOM     18  H14 UNK     1      47.980  14.807  -2.721  1.00  0.00     0.217 HD
ENDBRANCH  14  17
ENDBRANCH  10  11
ENDBRANCH   9  10
ENDBRANCH   7   9
ENDBRANCH   1   7
BRANCH   2  19
ATOM     19  O2  UNK     1      43.337  12.134 -10.799  1.00  0.00    -0.360 OA
ATOM     20  H11 UNK     1      43.312  12.262 -11.760  1.00  0.00     0.217 HD
ENDBRANCH   2  19
BRANCH   3  21
ATOM     21  O3  UNK     1      45.708   8.374  -8.991  1.00  0.00    -0.360 OA
ATOM     22  H12 UNK     1      46.215   7.878  -9.657  1.00  0.00     0.217 HD
ENDBRANCH   3  21
BRANCH   6  23
ATOM     23  O4  UNK     1      41.326   7.816 -10.774  1.00  0.00    -0.361 OA
ATOM     24  H13 UNK     1      40.640   8.344 -11.219  1.00  0.00     0.217 HD
ENDBRANCH   6  23
TORSDOF 8
ENDMDL
MODEL 17
REMARK VINA RESULT:      -5.8      9.601     10.865
REMARK  8 active torsions:
REMARK  status: ('A' for Active; 'I' for Inactive)
REMARK    1  A    between atoms: O2_2  and  C8_13 
REMARK    2  A    between atoms: O3_3  and  C9_14 
REMARK    3  A    between atoms: O4_4  and  C14_19 
REMARK    4  A    between atoms: O5_5  and  C15_20 
REMARK    5  A    between atoms: C1_6  and  C2_7 
REMARK    6  A    between atoms: C1_6  and  C3_8 
REMARK    7  A    between atoms: C2_7  and  C4_9 
REMARK    8  A    between atoms: C4_9  and  C5_10 
ROOT
ATOM      1  C5  UNK     1      44.602  10.483  -9.970  1.00  0.00     0.076 A 
ATOM      2  C8  UNK     1      44.306   9.296  -9.301  1.00  0.00     0.085 A 
ATOM      3  C9  UNK     1      43.681  11.026 -10.866  1.00  0.00     0.085 A 
ATOM      4  C10 UNK     1      43.091   8.651  -9.528  1.00  0.00     0.074 A 
ATOM      5  C11 UNK     1      42.465  10.382 -11.093  1.00  0.00     0.074 A 
ATOM      6  C14 UNK     1      42.170   9.194 -10.424  1.00  0.00     0.071 A 
ENDROOT
BRANCH   1   7
ATOM      7  C4  UNK     1      45.873  11.157  -9.731  1.00  0.00     0.165 C 
ATOM      8  O1  UNK     1      46.763  11.160 -10.604  1.00  0.00    -0.292 OA
BRANCH   7   9
ATOM      9  C2  UNK     1      46.122  11.869  -8.391  1.00  0.00     0.088 C 
BRANCH   9  10
ATOM     10  C1  UNK     1      47.411  11.421  -7.699  1.00  0.00     0.046 C 
BRANCH  10  11
ATOM     11  C3  UNK     1      47.759  12.315  -6.537  1.00  0.00    -0.058 A 
ATOM     12  C6  UNK     1      47.508  11.881  -5.244  1.00  0.00     0.010 A 
ATOM     13  C12 UNK     1      47.831  12.708  -4.168  1.00  0.00     0.037 A 
ATOM     14  C15 UNK     1      48.398  13.962  -4.397  1.00  0.00     0.065 A 
ATOM     15  C13 UNK     1      48.645  14.387  -5.703  1.00  0.00     0.037 A 
ATOM     16  C7  UNK     1      48.323  13.559  -6.778  1.00  0.00     0.010 A 
BRANCH  14  17
ATOM     17  O5  UNK     1      48.714  14.768  -3.348  1.00  0.00    -0.361 OA
ATOM     18  H14 UNK     1      47.994  15.407  -3.213  1.00  0.00     0.217 HD
ENDBRANCH  14  17
ENDBRANCH  10  11
ENDBRANCH   9  10
ENDBRANCH   7   9
ENDBRANCH   1   7
BRANCH   2  19
ATOM     19  O2  UNK     1      45.192   8.748  -8.421  1.00  0.00    -0.360 OA
ATOM     20  H11 UNK     1      45.491   9.411  -7.779  1.00  0.00     0.217 HD
ENDBRANCH   2  19
BRANCH   3  21
ATOM     21  O3  UNK     1      43.949  12.187 -11.530  1.00  0.00    -0.360 OA
ATOM     22  H12 UNK     1      43.209  12.390 -12.128  1.00  0.00     0.217 HD
ENDBRANCH   3  21
BRANCH   6  23
ATOM     23  O4  UNK     1      40.984   8.565 -10.646  1.00  0.00    -0.361 OA
ATOM     24  H13 UNK     1      40.634   8.242  -9.797  1.00  0.00     0.217 HD
ENDBRANCH   6  23
TORSDOF 8
ENDMDL
MODEL 18
REMARK VINA RESULT:      -5.7      9.270     11.110
REMARK  8 active torsions:
REMARK  status: ('A' for Active; 'I' for Inactive)
REMARK    1  A    between atoms: O2_2  and  C8_13 
REMARK    2  A    between atoms: O3_3  and  C9_14 
REMARK    3  A    between atoms: O4_4  and  C14_19 
REMARK    4  A    between atoms: O5_5  and  C15_20 
REMARK    5  A    between atoms: C1_6  and  C2_7 
REMARK    6  A    between atoms: C1_6  and  C3_8 
REMARK    7  A    between atoms: C2_7  and  C4_9 
REMARK    8  A    between atoms: C4_9  and  C5_10 
ROOT
ATOM      1  C5  UNK     1      46.615  10.509  -9.563  1.00  0.00     0.076 A 
ATOM      2  C8  UNK     1      45.846  11.421 -10.287  1.00  0.00     0.085 A 
ATOM      3  C9  UNK     1      45.993   9.487  -8.847  1.00  0.00     0.085 A 
ATOM      4  C10 UNK     1      44.456  11.311 -10.293  1.00  0.00     0.074 A 
ATOM      5  C11 UNK     1      44.603   9.377  -8.853  1.00  0.00     0.074 A 
ATOM      6  C14 UNK     1      43.834  10.289  -9.576  1.00  0.00     0.071 A 
ENDROOT
BRANCH   1   7
ATOM      7  C4  UNK     1      48.069  10.625  -9.558  1.00  0.00     0.165 C 
ATOM      8  O1  UNK     1      48.769   9.868 -10.258  1.00  0.00    -0.292 OA
BRANCH   7   9
ATOM      9  C2  UNK     1      48.748  11.689  -8.679  1.00  0.00     0.088 C 
BRANCH   9  10
ATOM     10  C1  UNK     1      48.959  11.233  -7.234  1.00  0.00     0.046 C 
BRANCH  10  11
ATOM     11  C3  UNK     1      48.674  12.342  -6.253  1.00  0.00    -0.058 A 
ATOM     12  C6  UNK     1      49.079  13.634  -6.548  1.00  0.00     0.010 A 
ATOM     13  C12 UNK     1      48.814  14.661  -5.641  1.00  0.00     0.037 A 
ATOM     14  C15 UNK     1      48.149  14.381  -4.447  1.00  0.00     0.065 A 
ATOM     15  C13 UNK     1      47.747  13.075  -4.161  1.00  0.00     0.037 A 
ATOM     16  C7  UNK     1      48.011  12.050  -5.070  1.00  0.00     0.010 A 
BRANCH  14  17
ATOM     17  O5  UNK     1      47.889  15.381  -3.562  1.00  0.00    -0.361 OA
ATOM     18  H14 UNK     1      46.934  15.405  -3.383  1.00  0.00     0.217 HD
ENDBRANCH  14  17
ENDBRANCH  10  11
ENDBRANCH   9  10
ENDBRANCH   7   9
ENDBRANCH   1   7
BRANCH   2  19
ATOM     19  O2  UNK     1      46.434  12.427 -10.995  1.00  0.00    -0.360 OA
ATOM     20  H11 UNK     1      47.267  12.698 -10.578  1.00  0.00     0.217 HD
ENDBRANCH   2  19
BRANCH   3  21
ATOM     21  O3  UNK     1      46.726   8.585  -8.134  1.00  0.00    -0.360 OA
ATOM     22  H12 UNK     1      47.218   8.017  -8.751  1.00  0.00     0.217 HD
ENDBRANCH   3  21
BRANCH   6  23
ATOM     23  O4  UNK     1      42.477  10.182  -9.581  1.00  0.00    -0.361 OA
ATOM     24  H13 UNK     1      42.116  10.785 -10.254  1.00  0.00     0.217 HD
ENDBRANCH   6  23
TORSDOF 8
ENDMDL
MODEL 19
REMARK VINA RESULT:      -5.6      9.894     11.799
REMARK  8 active torsions:
REMARK  status: ('A' for Active; 'I' for Inactive)
REMARK    1  A    between atoms: O2_2  and  C8_13 
REMARK    2  A    between atoms: O3_3  and  C9_14 
REMARK    3  A    between atoms: O4_4  and  C14_19 
REMARK    4  A    between atoms: O5_5  and  C15_20 
REMARK    5  A    between atoms: C1_6  and  C2_7 
REMARK    6  A    between atoms: C1_6  and  C3_8 
REMARK    7  A    between atoms: C2_7  and  C4_9 
REMARK    8  A    between atoms: C4_9  and  C5_10 
ROOT
ATOM      1  C5  UNK     1      49.522  11.757  -4.818  1.00  0.00     0.076 A 
ATOM      2  C8  UNK     1      49.616  10.365  -4.809  1.00  0.00     0.085 A 
ATOM      3  C9  UNK     1      50.667  12.533  -4.635  1.00  0.00     0.085 A 
ATOM      4  C10 UNK     1      50.852   9.750  -4.616  1.00  0.00     0.074 A 
ATOM      5  C11 UNK     1      51.903  11.919  -4.443  1.00  0.00     0.074 A 
ATOM      6  C14 UNK     1      51.997  10.526  -4.433  1.00  0.00     0.071 A 
ENDROOT
BRANCH   1   7
ATOM      7  C4  UNK     1      48.229  12.399  -5.021  1.00  0.00     0.165 C 
ATOM      8  O1  UNK     1      47.379  12.417  -4.109  1.00  0.00    -0.292 OA
BRANCH   7   9
ATOM      9  C2  UNK     1      47.905  13.059  -6.372  1.00  0.00     0.088 C 
BRANCH   9  10
ATOM     10  C1  UNK     1      48.304  12.200  -7.574  1.00  0.00     0.046 C 
BRANCH  10  11
ATOM     11  C3  UNK     1      47.196  11.262  -7.980  1.00  0.00    -0.058 A 
ATOM     12  C6  UNK     1      47.506   9.965  -8.361  1.00  0.00     0.010 A 
ATOM     13  C12 UNK     1      46.481   9.097  -8.736  1.00  0.00     0.037 A 
ATOM     14  C15 UNK     1      45.156   9.536  -8.727  1.00  0.00     0.065 A 
ATOM     15  C13 UNK     1      44.858  10.844  -8.343  1.00  0.00     0.037 A 
ATOM     16  C7  UNK     1      45.883  11.711  -7.967  1.00  0.00     0.010 A 
BRANCH  14  17
ATOM     17  O5  UNK     1      44.156   8.689  -9.092  1.00  0.00    -0.361 OA
ATOM     18  H14 UNK     1      43.425   9.207  -9.469  1.00  0.00     0.217 HD
ENDBRANCH  14  17
ENDBRANCH  10  11
ENDBRANCH   9  10
ENDBRANCH   7   9
ENDBRANCH   1   7
BRANCH   2  19
ATOM     19  O2  UNK     1      48.510   9.587  -4.986  1.00  0.00    -0.360 OA
ATOM     20  H11 UNK     1      47.726  10.137  -5.142  1.00  0.00     0.217 HD
ENDBRANCH   2  19
BRANCH   3  21
ATOM     21  O3  UNK     1      50.598  13.895  -4.642  1.00  0.00    -0.360 OA
ATOM     22  H12 UNK     1      51.491  14.259  -4.513  1.00  0.00     0.217 HD
ENDBRANCH   3  21
BRANCH   6  23
ATOM     23  O4  UNK     1      53.203   9.927  -4.244  1.00  0.00    -0.361 OA
ATOM     24  H13 UNK     1      53.503  10.101  -3.335  1.00  0.00     0.217 HD
ENDBRANCH   6  23
TORSDOF 8
ENDMDL
MODEL 20
REMARK VINA RESULT:      -5.6      9.901     11.817
REMARK  8 active torsions:
REMARK  status: ('A' for Active; 'I' for Inactive)
REMARK    1  A    between atoms: O2_2  and  C8_13 
REMARK    2  A    between atoms: O3_3  and  C9_14 
REMARK    3  A    between atoms: O4_4  and  C14_19 
REMARK    4  A    between atoms: O5_5  and  C15_20 
REMARK    5  A    between atoms: C1_6  and  C2_7 
REMARK    6  A    between atoms: C1_6  and  C3_8 
REMARK    7  A    between atoms: C2_7  and  C4_9 
REMARK    8  A    between atoms: C4_9  and  C5_10 
ROOT
ATOM      1  C5  UNK     1      49.526  11.721  -4.819  1.00  0.00     0.076 A 
ATOM      2  C8  UNK     1      50.670  12.497  -4.636  1.00  0.00     0.085 A 
ATOM      3  C9  UNK     1      49.620  10.329  -4.813  1.00  0.00     0.085 A 
ATOM      4  C10 UNK     1      51.908  11.882  -4.449  1.00  0.00     0.074 A 
ATOM      5  C11 UNK     1      50.857   9.714  -4.625  1.00  0.00     0.074 A 
ATOM      6  C14 UNK     1      52.002  10.491  -4.443  1.00  0.00     0.071 A 
ENDROOT
BRANCH   1   7
ATOM      7  C4  UNK     1      48.232  12.365  -5.014  1.00  0.00     0.165 C 
ATOM      8  O1  UNK     1      47.381  12.370  -4.104  1.00  0.00    -0.292 OA
BRANCH   7   9
ATOM      9  C2  UNK     1      47.911  13.044  -6.356  1.00  0.00     0.088 C 
BRANCH   9  10
ATOM     10  C1  UNK     1      48.305  12.200  -7.570  1.00  0.00     0.046 C 
BRANCH  10  11
ATOM     11  C3  UNK     1      47.200  11.261  -7.978  1.00  0.00    -0.058 A 
ATOM     12  C6  UNK     1      45.887  11.705  -7.961  1.00  0.00     0.010 A 
ATOM     13  C12 UNK     1      44.863  10.835  -8.340  1.00  0.00     0.037 A 
ATOM     14  C15 UNK     1      45.166   9.530  -8.729  1.00  0.00     0.065 A 
ATOM     15  C13 UNK     1      46.491   9.095  -8.741  1.00  0.00     0.037 A 
ATOM     16  C7  UNK     1      47.514   9.965  -8.363  1.00  0.00     0.010 A 
BRANCH  14  17
ATOM     17  O5  UNK     1      44.168   8.682  -9.099  1.00  0.00    -0.361 OA
ATOM     18  H14 UNK     1      43.419   8.792  -8.489  1.00  0.00     0.217 HD
ENDBRANCH  14  17
ENDBRANCH  10  11
ENDBRANCH   9  10
ENDBRANCH   7   9
ENDBRANCH   1   7
BRANCH   2  19
ATOM     19  O2  UNK     1      50.602  13.859  -4.638  1.00  0.00    -0.360 OA
ATOM     20  H11 UNK     1      49.679  14.155  -4.686  1.00  0.00     0.217 HD
ENDBRANCH   2  19
BRANCH   3  21
ATOM     21  O3  UNK     1      48.513   9.552  -4.989  1.00  0.00    -0.360 OA
ATOM     22  H12 UNK     1      47.976   9.922  -5.711  1.00  0.00     0.217 HD
ENDBRANCH   3  21
BRANCH   6  23
ATOM     23  O4  UNK     1      53.209   9.890  -4.261  1.00  0.00    -0.361 OA
ATOM     24  H13 UNK     1      53.742  10.004  -5.066  1.00  0.00     0.217 HD
ENDBRANCH   6  23
TORSDOF 8
ENDMDL
