MODEL 1
REMARK VINA RESULT:      -8.9      0.000      0.000
REMARK  8 active torsions:
REMARK  status: ('A' for Active; 'I' for Inactive)
REMARK    1  A    between atoms: O2_2  and  C8_13 
REMARK    2  A    between atoms: O3_3  and  C9_14 
REMARK    3  A    between atoms: O4_4  and  C14_19 
REMARK    4  A    between atoms: O5_5  and  C15_20 
REMARK    5  A    between atoms: C1_6  and  C2_7 
REMARK    6  A    between atoms: C1_6  and  C3_8 
REMARK    7  A    between atoms: C2_7  and  C4_9 
REMARK    8  A    between atoms: C4_9  and  C5_10 
ROOT
ATOM      1  C5  UNK     1      40.038  14.835  -1.471  1.00  0.00     0.076 A 
ATOM      2  C8  UNK     1      41.231  14.282  -1.007  1.00  0.00     0.085 A 
ATOM      3  C9  UNK     1      38.841  14.134  -1.322  1.00  0.00     0.085 A 
ATOM      4  C10 UNK     1      41.229  13.029  -0.395  1.00  0.00     0.074 A 
ATOM      5  C11 UNK     1      38.838  12.881  -0.710  1.00  0.00     0.074 A 
ATOM      6  C14 UNK     1      40.032  12.328  -0.246  1.00  0.00     0.071 A 
ENDROOT
BRANCH   1   7
ATOM      7  C4  UNK     1      40.041  16.146  -2.110  1.00  0.00     0.165 C 
ATOM      8  O1  UNK     1      40.371  16.268  -3.306  1.00  0.00    -0.292 OA
BRANCH   7   9
ATOM      9  C2  UNK     1      39.638  17.391  -1.303  1.00  0.00     0.088 C 
BRANCH   9  10
ATOM     10  C1  UNK     1      39.649  18.678  -2.132  1.00  0.00     0.046 C 
BRANCH  10  11
ATOM     11  C3  UNK     1      39.590  19.904  -1.258  1.00  0.00    -0.058 A 
ATOM     12  C6  UNK     1      38.795  19.895  -0.123  1.00  0.00     0.010 A 
ATOM     13  C12 UNK     1      38.741  21.030   0.687  1.00  0.00     0.037 A 
ATOM     14  C15 UNK     1      39.484  22.163   0.350  1.00  0.00     0.065 A 
ATOM     15  C13 UNK     1      40.280  22.159  -0.795  1.00  0.00     0.037 A 
ATOM     16  C7  UNK     1      40.334  21.023  -1.603  1.00  0.00     0.010 A 
BRANCH  14  17
ATOM     17  O5  UNK     1      39.433  23.269   1.140  1.00  0.00    -0.361 OA
ATOM     18  H14 UNK     1      40.332  23.484   1.440  1.00  0.00     0.217 HD
ENDBRANCH  14  17
ENDBRANCH  10  11
ENDBRANCH   9  10
ENDBRANCH   7   9
ENDBRANCH   1   7
BRANCH   2  19
ATOM     19  O2  UNK     1      42.412  14.950  -1.142  1.00  0.00    -0.360 OA
ATOM     20  H11 UNK     1      42.513  15.612  -0.439  1.00  0.00     0.217 HD
ENDBRANCH   2  19
BRANCH   3  21
ATOM     21  O3  UNK     1      37.663  14.656  -1.768  1.00  0.00    -0.360 OA
ATOM     22  H12 UNK     1      37.421  14.226  -2.606  1.00  0.00     0.217 HD
ENDBRANCH   3  21
BRANCH   6  23
ATOM     23  O4  UNK     1      40.029  11.105   0.350  1.00  0.00    -0.361 OA
ATOM     24  H13 UNK     1      39.446  10.511  -0.153  1.00  0.00     0.217 HD
ENDBRANCH   6  23
TORSDOF 8
ENDMDL
MODEL 2
REMARK VINA RESULT:      -8.9      0.004      1.863
REMARK  8 active torsions:
REMARK  status: ('A' for Active; 'I' for Inactive)
REMARK    1  A    between atoms: O2_2  and  C8_13 
REMARK    2  A    between atoms: O3_3  and  C9_14 
REMARK    3  A    between atoms: O4_4  and  C14_19 
REMARK    4  A    between atoms: O5_5  and  C15_20 
REMARK    5  A    between atoms: C1_6  and  C2_7 
REMARK    6  A    between atoms: C1_6  and  C3_8 
REMARK    7  A    between atoms: C2_7  and  C4_9 
REMARK    8  A    between atoms: C4_9  and  C5_10 
ROOT
ATOM      1  C5  UNK     1      40.038  14.835  -1.469  1.00  0.00     0.076 A 
ATOM      2  C8  UNK     1      38.840  14.135  -1.320  1.00  0.00     0.085 A 
ATOM      3  C9  UNK     1      41.231  14.280  -1.007  1.00  0.00     0.085 A 
ATOM      4  C10 UNK     1      38.835  12.882  -0.709  1.00  0.00     0.074 A 
ATOM      5  C11 UNK     1      41.227  13.026  -0.396  1.00  0.00     0.074 A 
ATOM      6  C14 UNK     1      40.028  12.327  -0.247  1.00  0.00     0.071 A 
ENDROOT
BRANCH   1   7
ATOM      7  C4  UNK     1      40.041  16.145  -2.109  1.00  0.00     0.165 C 
ATOM      8  O1  UNK     1      40.369  16.267  -3.305  1.00  0.00    -0.292 OA
BRANCH   7   9
ATOM      9  C2  UNK     1      39.641  17.392  -1.301  1.00  0.00     0.088 C 
BRANCH   9  10
ATOM     10  C1  UNK     1      39.652  18.678  -2.130  1.00  0.00     0.046 C 
BRANCH  10  11
ATOM     11  C3  UNK     1      39.594  19.904  -1.256  1.00  0.00    -0.058 A 
ATOM     12  C6  UNK     1      38.797  19.895  -0.121  1.00  0.00     0.010 A 
ATOM     13  C12 UNK     1      38.743  21.031   0.688  1.00  0.00     0.037 A 
ATOM     14  C15 UNK     1      39.487  22.163   0.352  1.00  0.00     0.065 A 
ATOM     15  C13 UNK     1      40.284  22.159  -0.793  1.00  0.00     0.037 A 
ATOM     16  C7  UNK     1      40.338  21.023  -1.601  1.00  0.00     0.010 A 
BRANCH  14  17
ATOM     17  O5  UNK     1      39.435  23.269   1.142  1.00  0.00    -0.361 OA
ATOM     18  H14 UNK     1      38.685  23.185   1.754  1.00  0.00     0.217 HD
ENDBRANCH  14  17
ENDBRANCH  10  11
ENDBRANCH   9  10
ENDBRANCH   7   9
ENDBRANCH   1   7
BRANCH   2  19
ATOM     19  O2  UNK     1      37.662  14.659  -1.765  1.00  0.00    -0.360 OA
ATOM     20  H11 UNK     1      37.696  15.629  -1.764  1.00  0.00     0.217 HD
ENDBRANCH   2  19
BRANCH   3  21
ATOM     21  O3  UNK     1      42.413  14.946  -1.143  1.00  0.00    -0.360 OA
ATOM     22  H12 UNK     1      42.230  15.879  -1.348  1.00  0.00     0.217 HD
ENDBRANCH   3  21
BRANCH   6  23
ATOM     23  O4  UNK     1      40.024  11.104   0.350  1.00  0.00    -0.361 OA
ATOM     24  H13 UNK     1      39.106  10.789   0.418  1.00  0.00     0.217 HD
ENDBRANCH   6  23
TORSDOF 8
ENDMDL
MODEL 3
REMARK VINA RESULT:      -8.9      0.005      1.081
REMARK  8 active torsions:
REMARK  status: ('A' for Active; 'I' for Inactive)
REMARK    1  A    between atoms: O2_2  and  C8_13 
REMARK    2  A    between atoms: O3_3  and  C9_14 
REMARK    3  A    between atoms: O4_4  and  C14_19 
REMARK    4  A    between atoms: O5_5  and  C15_20 
REMARK    5  A    between atoms: C1_6  and  C2_7 
REMARK    6  A    between atoms: C1_6  and  C3_8 
REMARK    7  A    between atoms: C2_7  and  C4_9 
REMARK    8  A    between atoms: C4_9  and  C5_10 
ROOT
ATOM      1  C5  UNK     1      40.037  14.835  -1.471  1.00  0.00     0.076 A 
ATOM      2  C8  UNK     1      41.232  14.284  -1.007  1.00  0.00     0.085 A 
ATOM      3  C9  UNK     1      38.842  14.133  -1.321  1.00  0.00     0.085 A 
ATOM      4  C10 UNK     1      41.231  13.032  -0.394  1.00  0.00     0.074 A 
ATOM      5  C11 UNK     1      38.839  12.881  -0.708  1.00  0.00     0.074 A 
ATOM      6  C14 UNK     1      40.035  12.329  -0.244  1.00  0.00     0.071 A 
ENDROOT
BRANCH   1   7
ATOM      7  C4  UNK     1      40.040  16.145  -2.112  1.00  0.00     0.165 C 
ATOM      8  O1  UNK     1      40.369  16.266  -3.308  1.00  0.00    -0.292 OA
BRANCH   7   9
ATOM      9  C2  UNK     1      39.636  17.391  -1.307  1.00  0.00     0.088 C 
BRANCH   9  10
ATOM     10  C1  UNK     1      39.645  18.677  -2.137  1.00  0.00     0.046 C 
BRANCH  10  11
ATOM     11  C3  UNK     1      39.588  19.904  -1.264  1.00  0.00    -0.058 A 
ATOM     12  C6  UNK     1      40.330  21.022  -1.611  1.00  0.00     0.010 A 
ATOM     13  C12 UNK     1      40.277  22.159  -0.803  1.00  0.00     0.037 A 
ATOM     14  C15 UNK     1      39.481  22.162   0.344  1.00  0.00     0.065 A 
ATOM     15  C13 UNK     1      38.739  21.030   0.681  1.00  0.00     0.037 A 
ATOM     16  C7  UNK     1      38.793  19.895  -0.127  1.00  0.00     0.010 A 
BRANCH  14  17
ATOM     17  O5  UNK     1      39.428  23.271   1.131  1.00  0.00    -0.361 OA
ATOM     18  H14 UNK     1      38.613  23.761   0.930  1.00  0.00     0.217 HD
ENDBRANCH  14  17
ENDBRANCH  10  11
ENDBRANCH   9  10
ENDBRANCH   7   9
ENDBRANCH   1   7
BRANCH   2  19
ATOM     19  O2  UNK     1      42.412  14.953  -1.143  1.00  0.00    -0.360 OA
ATOM     20  H11 UNK     1      43.101  14.364  -1.490  1.00  0.00     0.217 HD
ENDBRANCH   2  19
BRANCH   3  21
ATOM     21  O3  UNK     1      37.663  14.654  -1.767  1.00  0.00    -0.360 OA
ATOM     22  H12 UNK     1      37.065  13.925  -2.010  1.00  0.00     0.217 HD
ENDBRANCH   3  21
BRANCH   6  23
ATOM     23  O4  UNK     1      40.033  11.107   0.354  1.00  0.00    -0.361 OA
ATOM     24  H13 UNK     1      39.368  11.105   1.064  1.00  0.00     0.217 HD
ENDBRANCH   6  23
TORSDOF 8
ENDMDL
MODEL 4
REMARK VINA RESULT:      -8.9      0.006      2.154
REMARK  8 active torsions:
REMARK  status: ('A' for Active; 'I' for Inactive)
REMARK    1  A    between atoms: O2_2  and  C8_13 
REMARK    2  A    between atoms: O3_3  and  C9_14 
REMARK    3  A    between atoms: O4_4  and  C14_19 
REMARK    4  A    between atoms: O5_5  and  C15_20 
REMARK    5  A    between atoms: C1_6  and  C2_7 
REMARK    6  A    between atoms: C1_6  and  C3_8 
REMARK    7  A    between atoms: C2_7  and  C4_9 
REMARK    8  A    between atoms: C4_9  and  C5_10 
ROOT
ATOM      1  C5  UNK     1      40.038  14.835  -1.470  1.00  0.00     0.076 A 
ATOM      2  C8  UNK     1      38.841  14.133  -1.320  1.00  0.00     0.085 A 
ATOM      3  C9  UNK     1      41.232  14.283  -1.007  1.00  0.00     0.085 A 
ATOM      4  C10 UNK     1      38.839  12.881  -0.707  1.00  0.00     0.074 A 
ATOM      5  C11 UNK     1      41.230  13.030  -0.394  1.00  0.00     0.074 A 
ATOM      6  C14 UNK     1      40.033  12.329  -0.244  1.00  0.00     0.071 A 
ENDROOT
BRANCH   1   7
ATOM      7  C4  UNK     1      40.039  16.145  -2.112  1.00  0.00     0.165 C 
ATOM      8  O1  UNK     1      40.366  16.265  -3.308  1.00  0.00    -0.292 OA
BRANCH   7   9
ATOM      9  C2  UNK     1      39.636  17.391  -1.306  1.00  0.00     0.088 C 
BRANCH   9  10
ATOM     10  C1  UNK     1      39.645  18.676  -2.137  1.00  0.00     0.046 C 
BRANCH  10  11
ATOM     11  C3  UNK     1      39.587  19.904  -1.264  1.00  0.00    -0.058 A 
ATOM     12  C6  UNK     1      40.329  21.022  -1.612  1.00  0.00     0.010 A 
ATOM     13  C12 UNK     1      40.275  22.159  -0.804  1.00  0.00     0.037 A 
ATOM     14  C15 UNK     1      39.481  22.163   0.343  1.00  0.00     0.065 A 
ATOM     15  C13 UNK     1      38.740  21.030   0.682  1.00  0.00     0.037 A 
ATOM     16  C7  UNK     1      38.793  19.895  -0.126  1.00  0.00     0.010 A 
BRANCH  14  17
ATOM     17  O5  UNK     1      39.428  23.271   1.130  1.00  0.00    -0.361 OA
ATOM     18  H14 UNK     1      40.268  23.754   1.053  1.00  0.00     0.217 HD
ENDBRANCH  14  17
ENDBRANCH  10  11
ENDBRANCH   9  10
ENDBRANCH   7   9
ENDBRANCH   1   7
BRANCH   2  19
ATOM     19  O2  UNK     1      37.663  14.654  -1.766  1.00  0.00    -0.360 OA
ATOM     20  H11 UNK     1      36.913  14.256  -1.296  1.00  0.00     0.217 HD
ENDBRANCH   2  19
BRANCH   3  21
ATOM     21  O3  UNK     1      42.412  14.951  -1.144  1.00  0.00    -0.360 OA
ATOM     22  H12 UNK     1      42.571  15.127  -2.087  1.00  0.00     0.217 HD
ENDBRANCH   3  21
BRANCH   6  23
ATOM     23  O4  UNK     1      40.031  11.107   0.355  1.00  0.00    -0.361 OA
ATOM     24  H13 UNK     1      39.297  11.069   0.992  1.00  0.00     0.217 HD
ENDBRANCH   6  23
TORSDOF 8
ENDMDL
MODEL 5
REMARK VINA RESULT:      -8.4      0.946      1.172
REMARK  8 active torsions:
REMARK  status: ('A' for Active; 'I' for Inactive)
REMARK    1  A    between atoms: O2_2  and  C8_13 
REMARK    2  A    between atoms: O3_3  and  C9_14 
REMARK    3  A    between atoms: O4_4  and  C14_19 
REMARK    4  A    between atoms: O5_5  and  C15_20 
REMARK    5  A    between atoms: C1_6  and  C2_7 
REMARK    6  A    between atoms: C1_6  and  C3_8 
REMARK    7  A    between atoms: C2_7  and  C4_9 
REMARK    8  A    between atoms: C4_9  and  C5_10 
ROOT
ATOM      1  C5  UNK     1      40.171  14.288  -1.557  1.00  0.00     0.076 A 
ATOM      2  C8  UNK     1      41.491  14.192  -1.117  1.00  0.00     0.085 A 
ATOM      3  C9  UNK     1      39.209  13.402  -1.073  1.00  0.00     0.085 A 
ATOM      4  C10 UNK     1      41.849  13.209  -0.194  1.00  0.00     0.074 A 
ATOM      5  C11 UNK     1      39.566  12.420  -0.150  1.00  0.00     0.074 A 
ATOM      6  C14 UNK     1      40.887  12.323   0.290  1.00  0.00     0.071 A 
ENDROOT
BRANCH   1   7
ATOM      7  C4  UNK     1      39.798  15.316  -2.522  1.00  0.00     0.165 C 
ATOM      8  O1  UNK     1      39.377  15.003  -3.652  1.00  0.00    -0.292 OA
BRANCH   7   9
ATOM      9  C2  UNK     1      39.929  16.802  -2.146  1.00  0.00     0.088 C 
BRANCH   9  10
ATOM     10  C1  UNK     1      39.197  17.164  -0.851  1.00  0.00     0.046 C 
BRANCH  10  11
ATOM     11  C3  UNK     1      39.167  18.653  -0.626  1.00  0.00    -0.058 A 
ATOM     12  C6  UNK     1      38.454  19.166   0.447  1.00  0.00     0.010 A 
ATOM     13  C12 UNK     1      38.426  20.546   0.655  1.00  0.00     0.037 A 
ATOM     14  C15 UNK     1      39.110  21.396  -0.214  1.00  0.00     0.065 A 
ATOM     15  C13 UNK     1      39.823  20.867  -1.291  1.00  0.00     0.037 A 
ATOM     16  C7  UNK     1      39.851  19.488  -1.498  1.00  0.00     0.010 A 
BRANCH  14  17
ATOM     17  O5  UNK     1      39.084  22.741  -0.010  1.00  0.00    -0.361 OA
ATOM     18  H14 UNK     1      39.477  23.185  -0.781  1.00  0.00     0.217 HD
ENDBRANCH  14  17
ENDBRANCH  10  11
ENDBRANCH   9  10
ENDBRANCH   7   9
ENDBRANCH   1   7
BRANCH   2  19
ATOM     19  O2  UNK     1      42.448  15.047  -1.577  1.00  0.00    -0.360 OA
ATOM     20  H11 UNK     1      42.188  15.424  -2.433  1.00  0.00     0.217 HD
ENDBRANCH   2  19
BRANCH   3  21
ATOM     21  O3  UNK     1      37.913  13.480  -1.489  1.00  0.00    -0.360 OA
ATOM     22  H12 UNK     1      37.414  14.043  -0.872  1.00  0.00     0.217 HD
ENDBRANCH   3  21
BRANCH   6  23
ATOM     23  O4  UNK     1      41.235  11.364   1.190  1.00  0.00    -0.361 OA
ATOM     24  H13 UNK     1      41.767  10.686   0.738  1.00  0.00     0.217 HD
ENDBRANCH   6  23
TORSDOF 8
ENDMDL
MODEL 6
REMARK VINA RESULT:      -8.4      0.947      1.566
REMARK  8 active torsions:
REMARK  status: ('A' for Active; 'I' for Inactive)
REMARK    1  A    between atoms: O2_2  and  C8_13 
REMARK    2  A    between atoms: O3_3  and  C9_14 
REMARK    3  A    between atoms: O4_4  and  C14_19 
REMARK    4  A    between atoms: O5_5  and  C15_20 
REMARK    5  A    between atoms: C1_6  and  C2_7 
REMARK    6  A    between atoms: C1_6  and  C3_8 
REMARK    7  A    between atoms: C2_7  and  C4_9 
REMARK    8  A    between atoms: C4_9  and  C5_10 
ROOT
ATOM      1  C5  UNK     1      40.172  14.287  -1.560  1.00  0.00     0.076 A 
ATOM      2  C8  UNK     1      41.492  14.193  -1.121  1.00  0.00     0.085 A 
ATOM      3  C9  UNK     1      39.211  13.399  -1.077  1.00  0.00     0.085 A 
ATOM      4  C10 UNK     1      41.852  13.210  -0.199  1.00  0.00     0.074 A 
ATOM      5  C11 UNK     1      39.570  12.417  -0.155  1.00  0.00     0.074 A 
ATOM      6  C14 UNK     1      40.891  12.322   0.284  1.00  0.00     0.071 A 
ENDROOT
BRANCH   1   7
ATOM      7  C4  UNK     1      39.797  15.316  -2.524  1.00  0.00     0.165 C 
ATOM      8  O1  UNK     1      39.370  15.003  -3.653  1.00  0.00    -0.292 OA
BRANCH   7   9
ATOM      9  C2  UNK     1      39.930  16.801  -2.148  1.00  0.00     0.088 C 
BRANCH   9  10
ATOM     10  C1  UNK     1      39.200  17.165  -0.854  1.00  0.00     0.046 C 
BRANCH  10  11
ATOM     11  C3  UNK     1      39.170  18.655  -0.631  1.00  0.00    -0.058 A 
ATOM     12  C6  UNK     1      39.851  19.489  -1.505  1.00  0.00     0.010 A 
ATOM     13  C12 UNK     1      39.823  20.869  -1.300  1.00  0.00     0.037 A 
ATOM     14  C15 UNK     1      39.115  21.399  -0.220  1.00  0.00     0.065 A 
ATOM     15  C13 UNK     1      38.435  20.548   0.653  1.00  0.00     0.037 A 
ATOM     16  C7  UNK     1      38.463  19.169   0.446  1.00  0.00     0.010 A 
BRANCH  14  17
ATOM     17  O5  UNK     1      39.086  22.744  -0.020  1.00  0.00    -0.361 OA
ATOM     18  H14 UNK     1      38.680  22.926   0.844  1.00  0.00     0.217 HD
ENDBRANCH  14  17
ENDBRANCH  10  11
ENDBRANCH   9  10
ENDBRANCH   7   9
ENDBRANCH   1   7
BRANCH   2  19
ATOM     19  O2  UNK     1      42.447  15.050  -1.580  1.00  0.00    -0.360 OA
ATOM     20  H11 UNK     1      42.388  15.905  -1.123  1.00  0.00     0.217 HD
ENDBRANCH   2  19
BRANCH   3  21
ATOM     21  O3  UNK     1      37.914  13.475  -1.493  1.00  0.00    -0.360 OA
ATOM     22  H12 UNK     1      37.589  14.382  -1.356  1.00  0.00     0.217 HD
ENDBRANCH   3  21
BRANCH   6  23
ATOM     23  O4  UNK     1      41.241  11.362   1.183  1.00  0.00    -0.361 OA
ATOM     24  H13 UNK     1      40.519  10.714   1.250  1.00  0.00     0.217 HD
ENDBRANCH   6  23
TORSDOF 8
ENDMDL
MODEL 7
REMARK VINA RESULT:      -8.4      0.941      2.159
REMARK  8 active torsions:
REMARK  status: ('A' for Active; 'I' for Inactive)
REMARK    1  A    between atoms: O2_2  and  C8_13 
REMARK    2  A    between atoms: O3_3  and  C9_14 
REMARK    3  A    between atoms: O4_4  and  C14_19 
REMARK    4  A    between atoms: O5_5  and  C15_20 
REMARK    5  A    between atoms: C1_6  and  C2_7 
REMARK    6  A    between atoms: C1_6  and  C3_8 
REMARK    7  A    between atoms: C2_7  and  C4_9 
REMARK    8  A    between atoms: C4_9  and  C5_10 
ROOT
ATOM      1  C5  UNK     1      40.168  14.294  -1.555  1.00  0.00     0.076 A 
ATOM      2  C8  UNK     1      39.198  13.412  -1.078  1.00  0.00     0.085 A 
ATOM      3  C9  UNK     1      41.485  14.189  -1.109  1.00  0.00     0.085 A 
ATOM      4  C10 UNK     1      39.546  12.426  -0.154  1.00  0.00     0.074 A 
ATOM      5  C11 UNK     1      41.833  13.203  -0.186  1.00  0.00     0.074 A 
ATOM      6  C14 UNK     1      40.863  12.321   0.292  1.00  0.00     0.071 A 
ENDROOT
BRANCH   1   7
ATOM      7  C4  UNK     1      39.804  15.324  -2.521  1.00  0.00     0.165 C 
ATOM      8  O1  UNK     1      39.385  15.014  -3.653  1.00  0.00    -0.292 OA
BRANCH   7   9
ATOM      9  C2  UNK     1      39.940  16.809  -2.143  1.00  0.00     0.088 C 
BRANCH   9  10
ATOM     10  C1  UNK     1      39.196  17.176  -0.857  1.00  0.00     0.046 C 
BRANCH  10  11
ATOM     11  C3  UNK     1      39.164  18.667  -0.639  1.00  0.00    -0.058 A 
ATOM     12  C6  UNK     1      38.425  19.185   0.413  1.00  0.00     0.010 A 
ATOM     13  C12 UNK     1      38.395  20.566   0.616  1.00  0.00     0.037 A 
ATOM     14  C15 UNK     1      39.105  21.411  -0.237  1.00  0.00     0.065 A 
ATOM     15  C13 UNK     1      39.844  20.876  -1.293  1.00  0.00     0.037 A 
ATOM     16  C7  UNK     1      39.874  19.497  -1.494  1.00  0.00     0.010 A 
BRANCH  14  17
ATOM     17  O5  UNK     1      39.077  22.757  -0.039  1.00  0.00    -0.361 OA
ATOM     18  H14 UNK     1      38.185  23.087  -0.238  1.00  0.00     0.217 HD
ENDBRANCH  14  17
ENDBRANCH  10  11
ENDBRANCH   9  10
ENDBRANCH   7   9
ENDBRANCH   1   7
BRANCH   2  19
ATOM     19  O2  UNK     1      37.905  13.497  -1.500  1.00  0.00    -0.360 OA
ATOM     20  H11 UNK     1      37.863  13.827  -2.412  1.00  0.00     0.217 HD
ENDBRANCH   2  19
BRANCH   3  21
ATOM     21  O3  UNK     1      42.449  15.040  -1.563  1.00  0.00    -0.360 OA
ATOM     22  H12 UNK     1      43.184  14.521  -1.933  1.00  0.00     0.217 HD
ENDBRANCH   3  21
BRANCH   6  23
ATOM     23  O4  UNK     1      41.202  11.360   1.193  1.00  0.00    -0.361 OA
ATOM     24  H13 UNK     1      40.412  11.113   1.703  1.00  0.00     0.217 HD
ENDBRANCH   6  23
TORSDOF 8
ENDMDL
MODEL 8
REMARK VINA RESULT:      -8.2      1.676      2.801
REMARK  8 active torsions:
REMARK  status: ('A' for Active; 'I' for Inactive)
REMARK    1  A    between atoms: O2_2  and  C8_13 
REMARK    2  A    between atoms: O3_3  and  C9_14 
REMARK    3  A    between atoms: O4_4  and  C14_19 
REMARK    4  A    between atoms: O5_5  and  C15_20 
REMARK    5  A    between atoms: C1_6  and  C2_7 
REMARK    6  A    between atoms: C1_6  and  C3_8 
REMARK    7  A    between atoms: C2_7  and  C4_9 
REMARK    8  A    between atoms: C4_9  and  C5_10 
ROOT
ATOM      1  C5  UNK     1      40.202  13.206  -1.474  1.00  0.00     0.076 A 
ATOM      2  C8  UNK     1      39.144  12.893  -0.621  1.00  0.00     0.085 A 
ATOM      3  C9  UNK     1      41.375  12.452  -1.435  1.00  0.00     0.085 A 
ATOM      4  C10 UNK     1      39.258  11.826   0.270  1.00  0.00     0.074 A 
ATOM      5  C11 UNK     1      41.490  11.385  -0.545  1.00  0.00     0.074 A 
ATOM      6  C14 UNK     1      40.431  11.072   0.308  1.00  0.00     0.071 A 
ENDROOT
BRANCH   1   7
ATOM      7  C4  UNK     1      40.081  14.322  -2.405  1.00  0.00     0.165 C 
ATOM      8  O1  UNK     1      39.250  14.288  -3.333  1.00  0.00    -0.292 OA
BRANCH   7   9
ATOM      9  C2  UNK     1      40.989  15.554  -2.245  1.00  0.00     0.088 C 
BRANCH   9  10
ATOM     10  C1  UNK     1      40.403  16.821  -2.871  1.00  0.00     0.046 C 
BRANCH  10  11
ATOM     11  C3  UNK     1      39.795  17.726  -1.831  1.00  0.00    -0.058 A 
ATOM     12  C6  UNK     1      39.205  17.172  -0.705  1.00  0.00     0.010 A 
ATOM     13  C12 UNK     1      38.643  18.010   0.258  1.00  0.00     0.037 A 
ATOM     14  C15 UNK     1      38.675  19.394   0.083  1.00  0.00     0.065 A 
ATOM     15  C13 UNK     1      39.272  19.939  -1.055  1.00  0.00     0.037 A 
ATOM     16  C7  UNK     1      39.834  19.101  -2.017  1.00  0.00     0.010 A 
BRANCH  14  17
ATOM     17  O5  UNK     1      38.128  20.211   1.023  1.00  0.00    -0.361 OA
ATOM     18  H14 UNK     1      37.264  19.853   1.288  1.00  0.00     0.217 HD
ENDBRANCH  14  17
ENDBRANCH  10  11
ENDBRANCH   9  10
ENDBRANCH   7   9
ENDBRANCH   1   7
BRANCH   2  19
ATOM     19  O2  UNK     1      37.989  13.616  -0.642  1.00  0.00    -0.360 OA
ATOM     20  H11 UNK     1      37.972  14.214  -1.406  1.00  0.00     0.217 HD
ENDBRANCH   2  19
BRANCH   3  21
ATOM     21  O3  UNK     1      42.421  12.741  -2.261  1.00  0.00    -0.360 OA
ATOM     22  H12 UNK     1      42.325  13.652  -2.590  1.00  0.00     0.217 HD
ENDBRANCH   3  21
BRANCH   6  23
ATOM     23  O4  UNK     1      40.543  10.031   1.177  1.00  0.00    -0.361 OA
ATOM     24  H13 UNK     1      40.712   9.216   0.673  1.00  0.00     0.217 HD
ENDBRANCH   6  23
TORSDOF 8
ENDMDL
MODEL 9
REMARK VINA RESULT:      -8.1      1.667      2.193
REMARK  8 active torsions:
REMARK  status: ('A' for Active; 'I' for Inactive)
REMARK    1  A    between atoms: O2_2  and  C8_13 
REMARK    2  A    between atoms: O3_3  and  C9_14 
REMARK    3  A    between atoms: O4_4  and  C14_19 
REMARK    4  A    between atoms: O5_5  and  C15_20 
REMARK    5  A    between atoms: C1_6  and  C2_7 
REMARK    6  A    between atoms: C1_6  and  C3_8 
REMARK    7  A    between atoms: C2_7  and  C4_9 
REMARK    8  A    between atoms: C4_9  and  C5_10 
ROOT
ATOM      1  C5  UNK     1      40.191  13.220  -1.485  1.00  0.00     0.076 A 
ATOM      2  C8  UNK     1      41.358  12.456  -1.442  1.00  0.00     0.085 A 
ATOM      3  C9  UNK     1      39.126  12.915  -0.638  1.00  0.00     0.085 A 
ATOM      4  C10 UNK     1      41.459  11.387  -0.553  1.00  0.00     0.074 A 
ATOM      5  C11 UNK     1      39.227  11.846   0.252  1.00  0.00     0.074 A 
ATOM      6  C14 UNK     1      40.394  11.081   0.294  1.00  0.00     0.071 A 
ENDROOT
BRANCH   1   7
ATOM      7  C4  UNK     1      40.087  14.339  -2.416  1.00  0.00     0.165 C 
ATOM      8  O1  UNK     1      39.265  14.311  -3.352  1.00  0.00    -0.292 OA
BRANCH   7   9
ATOM      9  C2  UNK     1      41.001  15.564  -2.244  1.00  0.00     0.088 C 
BRANCH   9  10
ATOM     10  C1  UNK     1      40.428  16.837  -2.870  1.00  0.00     0.046 C 
BRANCH  10  11
ATOM     11  C3  UNK     1      39.811  17.739  -1.833  1.00  0.00    -0.058 A 
ATOM     12  C6  UNK     1      39.192  17.181  -0.726  1.00  0.00     0.010 A 
ATOM     13  C12 UNK     1      38.620  18.016   0.235  1.00  0.00     0.037 A 
ATOM     14  C15 UNK     1      38.674  19.402   0.075  1.00  0.00     0.065 A 
ATOM     15  C13 UNK     1      39.299  19.951  -1.044  1.00  0.00     0.037 A 
ATOM     16  C7  UNK     1      39.871  19.115  -2.004  1.00  0.00     0.010 A 
BRANCH  14  17
ATOM     17  O5  UNK     1      38.118  20.216   1.012  1.00  0.00    -0.361 OA
ATOM     18  H14 UNK     1      37.182  19.977   1.123  1.00  0.00     0.217 HD
ENDBRANCH  14  17
ENDBRANCH  10  11
ENDBRANCH   9  10
ENDBRANCH   7   9
ENDBRANCH   1   7
BRANCH   2  19
ATOM     19  O2  UNK     1      42.411  12.737  -2.261  1.00  0.00    -0.360 OA
ATOM     20  H11 UNK     1      42.397  13.670  -2.529  1.00  0.00     0.217 HD
ENDBRANCH   2  19
BRANCH   3  21
ATOM     21  O3  UNK     1      37.978  13.649  -0.663  1.00  0.00    -0.360 OA
ATOM     22  H12 UNK     1      38.194  14.570  -0.892  1.00  0.00     0.217 HD
ENDBRANCH   3  21
BRANCH   6  23
ATOM     23  O4  UNK     1      40.491  10.038   1.162  1.00  0.00    -0.361 OA
ATOM     24  H13 UNK     1      40.181  10.326   2.038  1.00  0.00     0.217 HD
ENDBRANCH   6  23
TORSDOF 8
ENDMDL
MODEL 10
REMARK VINA RESULT:      -8.1      2.114      7.117
REMARK  8 active torsions:
REMARK  status: ('A' for Active; 'I' for Inactive)
REMARK    1  A    between atoms: O2_2  and  C8_13 
REMARK    2  A    between atoms: O3_3  and  C9_14 
REMARK    3  A    between atoms: O4_4  and  C14_19 
REMARK    4  A    between atoms: O5_5  and  C15_20 
REMARK    5  A    between atoms: C1_6  and  C2_7 
REMARK    6  A    between atoms: C1_6  and  C3_8 
REMARK    7  A    between atoms: C2_7  and  C4_9 
REMARK    8  A    between atoms: C4_9  and  C5_10 
ROOT
ATOM      1  C5  UNK     1      39.776  16.688  -2.118  1.00  0.00     0.076 A 
ATOM      2  C8  UNK     1      39.060  16.762  -0.923  1.00  0.00     0.085 A 
ATOM      3  C9  UNK     1      40.158  17.857  -2.775  1.00  0.00     0.085 A 
ATOM      4  C10 UNK     1      38.726  18.005  -0.385  1.00  0.00     0.074 A 
ATOM      5  C11 UNK     1      39.825  19.100  -2.238  1.00  0.00     0.074 A 
ATOM      6  C14 UNK     1      39.109  19.174  -1.042  1.00  0.00     0.071 A 
ENDROOT
BRANCH   1   7
ATOM      7  C4  UNK     1      40.124  15.387  -2.679  1.00  0.00     0.165 C 
ATOM      8  O1  UNK     1      39.266  14.696  -3.262  1.00  0.00    -0.292 OA
BRANCH   7   9
ATOM      9  C2  UNK     1      41.563  14.859  -2.549  1.00  0.00     0.088 C 
BRANCH   9  10
ATOM     10  C1  UNK     1      42.016  14.691  -1.097  1.00  0.00     0.046 C 
BRANCH  10  11
ATOM     11  C3  UNK     1      41.548  13.382  -0.515  1.00  0.00    -0.058 A 
ATOM     12  C6  UNK     1      41.035  13.353   0.772  1.00  0.00     0.010 A 
ATOM     13  C12 UNK     1      40.602  12.141   1.311  1.00  0.00     0.037 A 
ATOM     14  C15 UNK     1      40.689  10.971   0.555  1.00  0.00     0.065 A 
ATOM     15  C13 UNK     1      41.208  11.014  -0.740  1.00  0.00     0.037 A 
ATOM     16  C7  UNK     1      41.640  12.226  -1.278  1.00  0.00     0.010 A 
BRANCH  14  17
ATOM     17  O5  UNK     1      40.265   9.789   1.079  1.00  0.00    -0.361 OA
ATOM     18  H14 UNK     1      41.021   9.181   1.137  1.00  0.00     0.217 HD
ENDBRANCH  14  17
ENDBRANCH  10  11
ENDBRANCH   9  10
ENDBRANCH   7   9
ENDBRANCH   1   7
BRANCH   2  19
ATOM     19  O2  UNK     1      38.676  15.632  -0.264  1.00  0.00    -0.360 OA
ATOM     20  H11 UNK     1      37.953  15.189  -0.736  1.00  0.00     0.217 HD
ENDBRANCH   2  19
BRANCH   3  21
ATOM     21  O3  UNK     1      40.859  17.807  -3.943  1.00  0.00    -0.360 OA
ATOM     22  H12 UNK     1      41.203  16.906  -4.069  1.00  0.00     0.217 HD
ENDBRANCH   3  21
BRANCH   6  23
ATOM     23  O4  UNK     1      38.783  20.387  -0.519  1.00  0.00    -0.361 OA
ATOM     24  H13 UNK     1      39.362  20.568   0.242  1.00  0.00     0.217 HD
ENDBRANCH   6  23
TORSDOF 8
ENDMDL
MODEL 11
REMARK VINA RESULT:      -8.0      2.118      7.138
REMARK  8 active torsions:
REMARK  status: ('A' for Active; 'I' for Inactive)
REMARK    1  A    between atoms: O2_2  and  C8_13 
REMARK    2  A    between atoms: O3_3  and  C9_14 
REMARK    3  A    between atoms: O4_4  and  C14_19 
REMARK    4  A    between atoms: O5_5  and  C15_20 
REMARK    5  A    between atoms: C1_6  and  C2_7 
REMARK    6  A    between atoms: C1_6  and  C3_8 
REMARK    7  A    between atoms: C2_7  and  C4_9 
REMARK    8  A    between atoms: C4_9  and  C5_10 
ROOT
ATOM      1  C5  UNK     1      39.731  16.702  -2.076  1.00  0.00     0.076 A 
ATOM      2  C8  UNK     1      38.974  16.719  -0.905  1.00  0.00     0.085 A 
ATOM      3  C9  UNK     1      40.123  17.901  -2.671  1.00  0.00     0.085 A 
ATOM      4  C10 UNK     1      38.608  17.936  -0.330  1.00  0.00     0.074 A 
ATOM      5  C11 UNK     1      39.757  19.117  -2.097  1.00  0.00     0.074 A 
ATOM      6  C14 UNK     1      38.999  19.135  -0.925  1.00  0.00     0.071 A 
ENDROOT
BRANCH   1   7
ATOM      7  C4  UNK     1      40.114  15.429  -2.677  1.00  0.00     0.165 C 
ATOM      8  O1  UNK     1      39.277  14.739  -3.290  1.00  0.00    -0.292 OA
BRANCH   7   9
ATOM      9  C2  UNK     1      41.564  14.929  -2.551  1.00  0.00     0.088 C 
BRANCH   9  10
ATOM     10  C1  UNK     1      42.018  14.753  -1.101  1.00  0.00     0.046 C 
BRANCH  10  11
ATOM     11  C3  UNK     1      41.572  13.429  -0.534  1.00  0.00    -0.058 A 
ATOM     12  C6  UNK     1      41.680  12.285  -1.310  1.00  0.00     0.010 A 
ATOM     13  C12 UNK     1      41.268  11.059  -0.786  1.00  0.00     0.037 A 
ATOM     14  C15 UNK     1      40.751  10.993   0.509  1.00  0.00     0.065 A 
ATOM     15  C13 UNK     1      40.648  12.152   1.279  1.00  0.00     0.037 A 
ATOM     16  C7  UNK     1      41.061  13.377   0.754  1.00  0.00     0.010 A 
BRANCH  14  17
ATOM     17  O5  UNK     1      40.350   9.798   1.021  1.00  0.00    -0.361 OA
ATOM     18  H14 UNK     1      39.477   9.575   0.656  1.00  0.00     0.217 HD
ENDBRANCH  14  17
ENDBRANCH  10  11
ENDBRANCH   9  10
ENDBRANCH   7   9
ENDBRANCH   1   7
BRANCH   2  19
ATOM     19  O2  UNK     1      38.581  15.559  -0.306  1.00  0.00    -0.360 OA
ATOM     20  H11 UNK     1      37.965  15.072  -0.876  1.00  0.00     0.217 HD
ENDBRANCH   2  19
BRANCH   3  21
ATOM     21  O3  UNK     1      40.864  17.906  -3.816  1.00  0.00    -0.360 OA
ATOM     22  H12 UNK     1      41.449  18.683  -3.813  1.00  0.00     0.217 HD
ENDBRANCH   3  21
BRANCH   6  23
ATOM     23  O4  UNK     1      38.641  20.322  -0.364  1.00  0.00    -0.361 OA
ATOM     24  H13 UNK     1      39.418  20.907  -0.343  1.00  0.00     0.217 HD
ENDBRANCH   6  23
TORSDOF 8
ENDMDL
MODEL 12
REMARK VINA RESULT:      -8.0      2.116      7.032
REMARK  8 active torsions:
REMARK  status: ('A' for Active; 'I' for Inactive)
REMARK    1  A    between atoms: O2_2  and  C8_13 
REMARK    2  A    between atoms: O3_3  and  C9_14 
REMARK    3  A    between atoms: O4_4  and  C14_19 
REMARK    4  A    between atoms: O5_5  and  C15_20 
REMARK    5  A    between atoms: C1_6  and  C2_7 
REMARK    6  A    between atoms: C1_6  and  C3_8 
REMARK    7  A    between atoms: C2_7  and  C4_9 
REMARK    8  A    between atoms: C4_9  and  C5_10 
ROOT
ATOM      1  C5  UNK     1      39.719  16.702  -2.072  1.00  0.00     0.076 A 
ATOM      2  C8  UNK     1      40.116  17.903  -2.661  1.00  0.00     0.085 A 
ATOM      3  C9  UNK     1      38.955  16.717  -0.905  1.00  0.00     0.085 A 
ATOM      4  C10 UNK     1      39.749  19.118  -2.083  1.00  0.00     0.074 A 
ATOM      5  C11 UNK     1      38.588  17.932  -0.327  1.00  0.00     0.074 A 
ATOM      6  C14 UNK     1      38.985  19.133  -0.916  1.00  0.00     0.071 A 
ENDROOT
BRANCH   1   7
ATOM      7  C4  UNK     1      40.103  15.432  -2.678  1.00  0.00     0.165 C 
ATOM      8  O1  UNK     1      39.265  14.742  -3.290  1.00  0.00    -0.292 OA
BRANCH   7   9
ATOM      9  C2  UNK     1      41.553  14.935  -2.559  1.00  0.00     0.088 C 
BRANCH   9  10
ATOM     10  C1  UNK     1      42.014  14.756  -1.110  1.00  0.00     0.046 C 
BRANCH  10  11
ATOM     11  C3  UNK     1      41.565  13.435  -0.542  1.00  0.00    -0.058 A 
ATOM     12  C6  UNK     1      41.683  12.287  -1.311  1.00  0.00     0.010 A 
ATOM     13  C12 UNK     1      41.267  11.063  -0.785  1.00  0.00     0.037 A 
ATOM     14  C15 UNK     1      40.737  11.003   0.505  1.00  0.00     0.065 A 
ATOM     15  C13 UNK     1      40.623  12.165   1.267  1.00  0.00     0.037 A 
ATOM     16  C7  UNK     1      41.039  13.388   0.741  1.00  0.00     0.010 A 
BRANCH  14  17
ATOM     17  O5  UNK     1      40.333   9.809   1.018  1.00  0.00    -0.361 OA
ATOM     18  H14 UNK     1      40.449   9.120   0.343  1.00  0.00     0.217 HD
ENDBRANCH  14  17
ENDBRANCH  10  11
ENDBRANCH   9  10
ENDBRANCH   7   9
ENDBRANCH   1   7
BRANCH   2  19
ATOM     19  O2  UNK     1      40.862  17.912  -3.802  1.00  0.00    -0.360 OA
ATOM     20  H11 UNK     1      41.469  18.669  -3.808  1.00  0.00     0.217 HD
ENDBRANCH   2  19
BRANCH   3  21
ATOM     21  O3  UNK     1      38.556  15.555  -0.314  1.00  0.00    -0.360 OA
ATOM     22  H12 UNK     1      38.368  14.896  -1.003  1.00  0.00     0.217 HD
ENDBRANCH   3  21
BRANCH   6  23
ATOM     23  O4  UNK     1      38.628  20.318  -0.351  1.00  0.00    -0.361 OA
ATOM     24  H13 UNK     1      39.033  21.043  -0.857  1.00  0.00     0.217 HD
ENDBRANCH   6  23
TORSDOF 8
ENDMDL
MODEL 13
REMARK VINA RESULT:      -8.0      1.635      7.575
REMARK  8 active torsions:
REMARK  status: ('A' for Active; 'I' for Inactive)
REMARK    1  A    between atoms: O2_2  and  C8_13 
REMARK    2  A    between atoms: O3_3  and  C9_14 
REMARK    3  A    between atoms: O4_4  and  C14_19 
REMARK    4  A    between atoms: O5_5  and  C15_20 
REMARK    5  A    between atoms: C1_6  and  C2_7 
REMARK    6  A    between atoms: C1_6  and  C3_8 
REMARK    7  A    between atoms: C2_7  and  C4_9 
REMARK    8  A    between atoms: C4_9  and  C5_10 
ROOT
ATOM      1  C5  UNK     1      39.061  18.190  -0.717  1.00  0.00     0.076 A 
ATOM      2  C8  UNK     1      38.412  18.789   0.363  1.00  0.00     0.085 A 
ATOM      3  C9  UNK     1      39.732  18.979  -1.651  1.00  0.00     0.085 A 
ATOM      4  C10 UNK     1      38.433  20.176   0.508  1.00  0.00     0.074 A 
ATOM      5  C11 UNK     1      39.754  20.366  -1.507  1.00  0.00     0.074 A 
ATOM      6  C14 UNK     1      39.104  20.965  -0.426  1.00  0.00     0.071 A 
ENDROOT
BRANCH   1   7
ATOM      7  C4  UNK     1      39.038  16.740  -0.868  1.00  0.00     0.165 C 
ATOM      8  O1  UNK     1      37.957  16.122  -0.907  1.00  0.00    -0.292 OA
BRANCH   7   9
ATOM      9  C2  UNK     1      40.361  15.962  -0.976  1.00  0.00     0.088 C 
BRANCH   9  10
ATOM     10  C1  UNK     1      40.272  14.746  -1.902  1.00  0.00     0.046 C 
BRANCH  10  11
ATOM     11  C3  UNK     1      40.461  13.456  -1.146  1.00  0.00    -0.058 A 
ATOM     12  C6  UNK     1      39.764  13.249   0.035  1.00  0.00     0.010 A 
ATOM     13  C12 UNK     1      39.939  12.054   0.734  1.00  0.00     0.037 A 
ATOM     14  C15 UNK     1      40.811  11.081   0.245  1.00  0.00     0.065 A 
ATOM     15  C13 UNK     1      41.506  11.302  -0.945  1.00  0.00     0.037 A 
ATOM     16  C7  UNK     1      41.330  12.496  -1.644  1.00  0.00     0.010 A 
BRANCH  14  17
ATOM     17  O5  UNK     1      40.980   9.916   0.926  1.00  0.00    -0.361 OA
ATOM     18  H14 UNK     1      41.233   9.217   0.299  1.00  0.00     0.217 HD
ENDBRANCH  14  17
ENDBRANCH  10  11
ENDBRANCH   9  10
ENDBRANCH   7   9
ENDBRANCH   1   7
BRANCH   2  19
ATOM     19  O2  UNK     1      37.751  18.037   1.288  1.00  0.00    -0.360 OA
ATOM     20  H11 UNK     1      36.923  17.690   0.919  1.00  0.00     0.217 HD
ENDBRANCH   2  19
BRANCH   3  21
ATOM     21  O3  UNK     1      40.373  18.414  -2.714  1.00  0.00    -0.360 OA
ATOM     22  H12 UNK     1      40.810  19.114  -3.230  1.00  0.00     0.217 HD
ENDBRANCH   3  21
BRANCH   6  23
ATOM     23  O4  UNK     1      39.124  22.318  -0.286  1.00  0.00    -0.361 OA
ATOM     24  H13 UNK     1      38.484  22.709  -0.905  1.00  0.00     0.217 HD
ENDBRANCH   6  23
TORSDOF 8
ENDMDL
MODEL 14
REMARK VINA RESULT:      -8.0      1.636      7.474
REMARK  8 active torsions:
REMARK  status: ('A' for Active; 'I' for Inactive)
REMARK    1  A    between atoms: O2_2  and  C8_13 
REMARK    2  A    between atoms: O3_3  and  C9_14 
REMARK    3  A    between atoms: O4_4  and  C14_19 
REMARK    4  A    between atoms: O5_5  and  C15_20 
REMARK    5  A    between atoms: C1_6  and  C2_7 
REMARK    6  A    between atoms: C1_6  and  C3_8 
REMARK    7  A    between atoms: C2_7  and  C4_9 
REMARK    8  A    between atoms: C4_9  and  C5_10 
ROOT
ATOM      1  C5  UNK     1      39.061  18.192  -0.715  1.00  0.00     0.076 A 
ATOM      2  C8  UNK     1      39.732  18.978  -1.652  1.00  0.00     0.085 A 
ATOM      3  C9  UNK     1      38.413  18.793   0.364  1.00  0.00     0.085 A 
ATOM      4  C10 UNK     1      39.755  20.365  -1.509  1.00  0.00     0.074 A 
ATOM      5  C11 UNK     1      38.436  20.180   0.507  1.00  0.00     0.074 A 
ATOM      6  C14 UNK     1      39.107  20.967  -0.430  1.00  0.00     0.071 A 
ENDROOT
BRANCH   1   7
ATOM      7  C4  UNK     1      39.038  16.741  -0.865  1.00  0.00     0.165 C 
ATOM      8  O1  UNK     1      37.955  16.124  -0.901  1.00  0.00    -0.292 OA
BRANCH   7   9
ATOM      9  C2  UNK     1      40.359  15.962  -0.977  1.00  0.00     0.088 C 
BRANCH   9  10
ATOM     10  C1  UNK     1      40.267  14.746  -1.900  1.00  0.00     0.046 C 
BRANCH  10  11
ATOM     11  C3  UNK     1      40.456  13.456  -1.144  1.00  0.00    -0.058 A 
ATOM     12  C6  UNK     1      39.759  13.250   0.037  1.00  0.00     0.010 A 
ATOM     13  C12 UNK     1      39.934  12.056   0.737  1.00  0.00     0.037 A 
ATOM     14  C15 UNK     1      40.806  11.082   0.249  1.00  0.00     0.065 A 
ATOM     15  C13 UNK     1      41.502  11.303  -0.940  1.00  0.00     0.037 A 
ATOM     16  C7  UNK     1      41.326  12.496  -1.640  1.00  0.00     0.010 A 
BRANCH  14  17
ATOM     17  O5  UNK     1      40.975   9.918   0.931  1.00  0.00    -0.361 OA
ATOM     18  H14 UNK     1      40.253   9.821   1.574  1.00  0.00     0.217 HD
ENDBRANCH  14  17
ENDBRANCH  10  11
ENDBRANCH   9  10
ENDBRANCH   7   9
ENDBRANCH   1   7
BRANCH   2  19
ATOM     19  O2  UNK     1      40.372  18.412  -2.714  1.00  0.00    -0.360 OA
ATOM     20  H11 UNK     1      40.697  17.526  -2.485  1.00  0.00     0.217 HD
ENDBRANCH   2  19
BRANCH   3  21
ATOM     21  O3  UNK     1      37.751  18.043   1.290  1.00  0.00    -0.360 OA
ATOM     22  H12 UNK     1      36.794  18.117   1.134  1.00  0.00     0.217 HD
ENDBRANCH   3  21
BRANCH   6  23
ATOM     23  O4  UNK     1      39.130  22.320  -0.291  1.00  0.00    -0.361 OA
ATOM     24  H13 UNK     1      39.737  22.695  -0.952  1.00  0.00     0.217 HD
ENDBRANCH   6  23
TORSDOF 8
ENDMDL
MODEL 15
REMARK VINA RESULT:      -7.9      3.472      7.289
REMARK  8 active torsions:
REMARK  status: ('A' for Active; 'I' for Inactive)
REMARK    1  A    between atoms: O2_2  and  C8_13 
REMARK    2  A    between atoms: O3_3  and  C9_14 
REMARK    3  A    between atoms: O4_4  and  C14_19 
REMARK    4  A    between atoms: O5_5  and  C15_20 
REMARK    5  A    between atoms: C1_6  and  C2_7 
REMARK    6  A    between atoms: C1_6  and  C3_8 
REMARK    7  A    between atoms: C2_7  and  C4_9 
REMARK    8  A    between atoms: C4_9  and  C5_10 
ROOT
ATOM      1  C5  UNK     1      40.244  13.666  -1.151  1.00  0.00     0.076 A 
ATOM      2  C8  UNK     1      40.863  14.914  -1.229  1.00  0.00     0.085 A 
ATOM      3  C9  UNK     1      38.868  13.583  -0.941  1.00  0.00     0.085 A 
ATOM      4  C10 UNK     1      40.106  16.078  -1.096  1.00  0.00     0.074 A 
ATOM      5  C11 UNK     1      38.110  14.747  -0.808  1.00  0.00     0.074 A 
ATOM      6  C14 UNK     1      38.730  15.995  -0.886  1.00  0.00     0.071 A 
ENDROOT
BRANCH   1   7
ATOM      7  C4  UNK     1      41.036  12.450  -1.291  1.00  0.00     0.165 C 
ATOM      8  O1  UNK     1      41.575  12.164  -2.378  1.00  0.00    -0.292 OA
BRANCH   7   9
ATOM      9  C2  UNK     1      41.208  11.507  -0.088  1.00  0.00     0.088 C 
BRANCH   9  10
ATOM     10  C1  UNK     1      41.497  12.244   1.221  1.00  0.00     0.046 C 
BRANCH  10  11
ATOM     11  C3  UNK     1      40.584  11.788   2.331  1.00  0.00    -0.058 A 
ATOM     12  C6  UNK     1      40.341  12.631   3.404  1.00  0.00     0.010 A 
ATOM     13  C12 UNK     1      39.496  12.209   4.430  1.00  0.00     0.037 A 
ATOM     14  C15 UNK     1      38.904  10.947   4.372  1.00  0.00     0.065 A 
ATOM     15  C13 UNK     1      39.157  10.108   3.287  1.00  0.00     0.037 A 
ATOM     16  C7  UNK     1      40.002  10.530   2.260  1.00  0.00     0.010 A 
BRANCH  14  17
ATOM     17  O5  UNK     1      38.079  10.536   5.372  1.00  0.00    -0.361 OA
ATOM     18  H14 UNK     1      37.288  11.101   5.381  1.00  0.00     0.217 HD
ENDBRANCH  14  17
ENDBRANCH  10  11
ENDBRANCH   9  10
ENDBRANCH   7   9
ENDBRANCH   1   7
BRANCH   2  19
ATOM     19  O2  UNK     1      42.207  15.018  -1.435  1.00  0.00    -0.360 OA
ATOM     20  H11 UNK     1      42.397  15.654  -2.143  1.00  0.00     0.217 HD
ENDBRANCH   2  19
BRANCH   3  21
ATOM     21  O3  UNK     1      38.242  12.374  -0.862  1.00  0.00    -0.360 OA
ATOM     22  H12 UNK     1      38.673  11.837  -0.175  1.00  0.00     0.217 HD
ENDBRANCH   3  21
BRANCH   6  23
ATOM     23  O4  UNK     1      37.991  17.130  -0.755  1.00  0.00    -0.361 OA
ATOM     24  H13 UNK     1      38.306  17.623   0.021  1.00  0.00     0.217 HD
ENDBRANCH   6  23
TORSDOF 8
ENDMDL
MODEL 16
REMARK VINA RESULT:      -7.9      3.468      7.468
REMARK  8 active torsions:
REMARK  status: ('A' for Active; 'I' for Inactive)
REMARK    1  A    between atoms: O2_2  and  C8_13 
REMARK    2  A    between atoms: O3_3  and  C9_14 
REMARK    3  A    between atoms: O4_4  and  C14_19 
REMARK    4  A    between atoms: O5_5  and  C15_20 
REMARK    5  A    between atoms: C1_6  and  C2_7 
REMARK    6  A    between atoms: C1_6  and  C3_8 
REMARK    7  A    between atoms: C2_7  and  C4_9 
REMARK    8  A    between atoms: C4_9  and  C5_10 
ROOT
ATOM      1  C5  UNK     1      40.238  13.671  -1.153  1.00  0.00     0.076 A 
ATOM      2  C8  UNK     1      38.860  13.594  -0.948  1.00  0.00     0.085 A 
ATOM      3  C9  UNK     1      40.864  14.915  -1.224  1.00  0.00     0.085 A 
ATOM      4  C10 UNK     1      38.109  14.761  -0.815  1.00  0.00     0.074 A 
ATOM      5  C11 UNK     1      40.113  16.083  -1.091  1.00  0.00     0.074 A 
ATOM      6  C14 UNK     1      38.735  16.006  -0.887  1.00  0.00     0.071 A 
ENDROOT
BRANCH   1   7
ATOM      7  C4  UNK     1      41.023  12.449  -1.291  1.00  0.00     0.165 C 
ATOM      8  O1  UNK     1      41.556  12.156  -2.379  1.00  0.00    -0.292 OA
BRANCH   7   9
ATOM      9  C2  UNK     1      41.194  11.510  -0.085  1.00  0.00     0.088 C 
BRANCH   9  10
ATOM     10  C1  UNK     1      41.482  12.251   1.222  1.00  0.00     0.046 C 
BRANCH  10  11
ATOM     11  C3  UNK     1      40.573  11.794   2.334  1.00  0.00    -0.058 A 
ATOM     12  C6  UNK     1      39.993  10.537   2.267  1.00  0.00     0.010 A 
ATOM     13  C12 UNK     1      39.151  10.114   3.296  1.00  0.00     0.037 A 
ATOM     14  C15 UNK     1      38.898  10.955   4.380  1.00  0.00     0.065 A 
ATOM     15  C13 UNK     1      39.488  12.219   4.435  1.00  0.00     0.037 A 
ATOM     16  C7  UNK     1      40.330  12.640   3.406  1.00  0.00     0.010 A 
BRANCH  14  17
ATOM     17  O5  UNK     1      38.078  10.543   5.384  1.00  0.00    -0.361 OA
ATOM     18  H14 UNK     1      38.056  11.226   6.075  1.00  0.00     0.217 HD
ENDBRANCH  14  17
ENDBRANCH  10  11
ENDBRANCH   9  10
ENDBRANCH   7   9
ENDBRANCH   1   7
BRANCH   2  19
ATOM     19  O2  UNK     1      38.228  12.388  -0.874  1.00  0.00    -0.360 OA
ATOM     20  H11 UNK     1      38.660  11.814  -0.222  1.00  0.00     0.217 HD
ENDBRANCH   2  19
BRANCH   3  21
ATOM     21  O3  UNK     1      42.209  15.012  -1.423  1.00  0.00    -0.360 OA
ATOM     22  H12 UNK     1      42.567  14.128  -1.615  1.00  0.00     0.217 HD
ENDBRANCH   3  21
BRANCH   6  23
ATOM     23  O4  UNK     1      38.002  17.145  -0.758  1.00  0.00    -0.361 OA
ATOM     24  H13 UNK     1      38.120  17.687  -1.557  1.00  0.00     0.217 HD
ENDBRANCH   6  23
TORSDOF 8
ENDMDL
MODEL 17
REMARK VINA RESULT:      -7.7      1.639      7.484
REMARK  8 active torsions:
REMARK  status: ('A' for Active; 'I' for Inactive)
REMARK    1  A    between atoms: O2_2  and  C8_13 
REMARK    2  A    between atoms: O3_3  and  C9_14 
REMARK    3  A    between atoms: O4_4  and  C14_19 
REMARK    4  A    between atoms: O5_5  and  C15_20 
REMARK    5  A    between atoms: C1_6  and  C2_7 
REMARK    6  A    between atoms: C1_6  and  C3_8 
REMARK    7  A    between atoms: C2_7  and  C4_9 
REMARK    8  A    between atoms: C4_9  and  C5_10 
ROOT
ATOM      1  C5  UNK     1      39.480  19.599  -1.107  1.00  0.00     0.076 A 
ATOM      2  C8  UNK     1      38.732  19.436   0.059  1.00  0.00     0.085 A 
ATOM      3  C9  UNK     1      40.059  20.835  -1.397  1.00  0.00     0.085 A 
ATOM      4  C10 UNK     1      38.562  20.509   0.934  1.00  0.00     0.074 A 
ATOM      5  C11 UNK     1      39.889  21.907  -0.523  1.00  0.00     0.074 A 
ATOM      6  C14 UNK     1      39.140  21.745   0.644  1.00  0.00     0.071 A 
ENDROOT
BRANCH   1   7
ATOM      7  C4  UNK     1      39.658  18.477  -2.021  1.00  0.00     0.165 C 
ATOM      8  O1  UNK     1      39.655  18.655  -3.255  1.00  0.00    -0.292 OA
BRANCH   7   9
ATOM      9  C2  UNK     1      39.849  17.057  -1.461  1.00  0.00     0.088 C 
BRANCH   9  10
ATOM     10  C1  UNK     1      40.375  16.063  -2.499  1.00  0.00     0.046 C 
BRANCH  10  11
ATOM     11  C3  UNK     1      40.534  14.682  -1.918  1.00  0.00    -0.058 A 
ATOM     12  C6  UNK     1      39.451  14.072  -1.305  1.00  0.00     0.010 A 
ATOM     13  C12 UNK     1      39.598  12.793  -0.767  1.00  0.00     0.037 A 
ATOM     14  C15 UNK     1      40.829  12.140  -0.847  1.00  0.00     0.065 A 
ATOM     15  C13 UNK     1      41.911  12.766  -1.466  1.00  0.00     0.037 A 
ATOM     16  C7  UNK     1      41.763  14.044  -2.004  1.00  0.00     0.010 A 
BRANCH  14  17
ATOM     17  O5  UNK     1      40.972  10.892  -0.324  1.00  0.00    -0.361 OA
ATOM     18  H14 UNK     1      41.916  10.661  -0.313  1.00  0.00     0.217 HD
ENDBRANCH  14  17
ENDBRANCH  10  11
ENDBRANCH   9  10
ENDBRANCH   7   9
ENDBRANCH   1   7
BRANCH   2  19
ATOM     19  O2  UNK     1      38.158  18.238   0.362  1.00  0.00    -0.360 OA
ATOM     20  H11 UNK     1      38.468  17.918   1.224  1.00  0.00     0.217 HD
ENDBRANCH   2  19
BRANCH   3  21
ATOM     21  O3  UNK     1      40.795  21.015  -2.531  1.00  0.00    -0.360 OA
ATOM     22  H12 UNK     1      40.530  21.850  -2.953  1.00  0.00     0.217 HD
ENDBRANCH   3  21
BRANCH   6  23
ATOM     23  O4  UNK     1      38.974  22.791   1.497  1.00  0.00    -0.361 OA
ATOM     24  H13 UNK     1      39.441  22.598   2.328  1.00  0.00     0.217 HD
ENDBRANCH   6  23
TORSDOF 8
ENDMDL
MODEL 18
REMARK VINA RESULT:      -7.7      1.640      7.368
REMARK  8 active torsions:
REMARK  status: ('A' for Active; 'I' for Inactive)
REMARK    1  A    between atoms: O2_2  and  C8_13 
REMARK    2  A    between atoms: O3_3  and  C9_14 
REMARK    3  A    between atoms: O4_4  and  C14_19 
REMARK    4  A    between atoms: O5_5  and  C15_20 
REMARK    5  A    between atoms: C1_6  and  C2_7 
REMARK    6  A    between atoms: C1_6  and  C3_8 
REMARK    7  A    between atoms: C2_7  and  C4_9 
REMARK    8  A    between atoms: C4_9  and  C5_10 
ROOT
ATOM      1  C5  UNK     1      39.481  19.599  -1.103  1.00  0.00     0.076 A 
ATOM      2  C8  UNK     1      40.061  20.834  -1.393  1.00  0.00     0.085 A 
ATOM      3  C9  UNK     1      38.729  19.439   0.061  1.00  0.00     0.085 A 
ATOM      4  C10 UNK     1      39.890  21.908  -0.520  1.00  0.00     0.074 A 
ATOM      5  C11 UNK     1      38.558  20.512   0.935  1.00  0.00     0.074 A 
ATOM      6  C14 UNK     1      39.138  21.747   0.645  1.00  0.00     0.071 A 
ENDROOT
BRANCH   1   7
ATOM      7  C4  UNK     1      39.659  18.478  -2.018  1.00  0.00     0.165 C 
ATOM      8  O1  UNK     1      39.654  18.657  -3.251  1.00  0.00    -0.292 OA
BRANCH   7   9
ATOM      9  C2  UNK     1      39.853  17.058  -1.458  1.00  0.00     0.088 C 
BRANCH   9  10
ATOM     10  C1  UNK     1      40.373  16.064  -2.499  1.00  0.00     0.046 C 
BRANCH  10  11
ATOM     11  C3  UNK     1      40.533  14.682  -1.918  1.00  0.00    -0.058 A 
ATOM     12  C6  UNK     1      39.451  14.071  -1.305  1.00  0.00     0.010 A 
ATOM     13  C12 UNK     1      39.599  12.792  -0.768  1.00  0.00     0.037 A 
ATOM     14  C15 UNK     1      40.831  12.140  -0.849  1.00  0.00     0.065 A 
ATOM     15  C13 UNK     1      41.912  12.767  -1.469  1.00  0.00     0.037 A 
ATOM     16  C7  UNK     1      41.763  14.045  -2.006  1.00  0.00     0.010 A 
BRANCH  14  17
ATOM     17  O5  UNK     1      40.975  10.892  -0.327  1.00  0.00    -0.361 OA
ATOM     18  H14 UNK     1      40.481  10.841   0.509  1.00  0.00     0.217 HD
ENDBRANCH  14  17
ENDBRANCH  10  11
ENDBRANCH   9  10
ENDBRANCH   7   9
ENDBRANCH   1   7
BRANCH   2  19
ATOM     19  O2  UNK     1      40.799  21.014  -2.525  1.00  0.00    -0.360 OA
ATOM     20  H11 UNK     1      40.252  21.387  -3.235  1.00  0.00     0.217 HD
ENDBRANCH   2  19
BRANCH   3  21
ATOM     21  O3  UNK     1      38.153  18.240   0.363  1.00  0.00    -0.360 OA
ATOM     22  H12 UNK     1      38.276  17.631  -0.385  1.00  0.00     0.217 HD
ENDBRANCH   3  21
BRANCH   6  23
ATOM     23  O4  UNK     1      38.972  22.794   1.498  1.00  0.00    -0.361 OA
ATOM     24  H13 UNK     1      39.325  23.599   1.081  1.00  0.00     0.217 HD
ENDBRANCH   6  23
TORSDOF 8
ENDMDL
MODEL 19
REMARK VINA RESULT:      -7.7      1.785      7.687
REMARK  8 active torsions:
REMARK  status: ('A' for Active; 'I' for Inactive)
REMARK    1  A    between atoms: O2_2  and  C8_13 
REMARK    2  A    between atoms: O3_3  and  C9_14 
REMARK    3  A    between atoms: O4_4  and  C14_19 
REMARK    4  A    between atoms: O5_5  and  C15_20 
REMARK    5  A    between atoms: C1_6  and  C2_7 
REMARK    6  A    between atoms: C1_6  and  C3_8 
REMARK    7  A    between atoms: C2_7  and  C4_9 
REMARK    8  A    between atoms: C4_9  and  C5_10 
ROOT
ATOM      1  C5  UNK     1      39.249  20.236  -0.622  1.00  0.00     0.076 A 
ATOM      2  C8  UNK     1      38.811  20.830   0.562  1.00  0.00     0.085 A 
ATOM      3  C9  UNK     1      40.072  20.947  -1.495  1.00  0.00     0.085 A 
ATOM      4  C10 UNK     1      39.196  22.135   0.871  1.00  0.00     0.074 A 
ATOM      5  C11 UNK     1      40.458  22.251  -1.186  1.00  0.00     0.074 A 
ATOM      6  C14 UNK     1      40.019  22.845  -0.002  1.00  0.00     0.071 A 
ENDROOT
BRANCH   1   7
ATOM      7  C4  UNK     1      38.846  18.872  -0.945  1.00  0.00     0.165 C 
ATOM      8  O1  UNK     1      37.674  18.620  -1.285  1.00  0.00    -0.292 OA
BRANCH   7   9
ATOM      9  C2  UNK     1      39.875  17.731  -0.863  1.00  0.00     0.088 C 
BRANCH   9  10
ATOM     10  C1  UNK     1      39.974  16.914  -2.152  1.00  0.00     0.046 C 
BRANCH  10  11
ATOM     11  C3  UNK     1      40.271  15.463  -1.870  1.00  0.00    -0.058 A 
ATOM     12  C6  UNK     1      39.264  14.643  -1.386  1.00  0.00     0.010 A 
ATOM     13  C12 UNK     1      39.539  13.300  -1.126  1.00  0.00     0.037 A 
ATOM     14  C15 UNK     1      40.820  12.794  -1.351  1.00  0.00     0.065 A 
ATOM     15  C13 UNK     1      41.824  13.630  -1.838  1.00  0.00     0.037 A 
ATOM     16  C7  UNK     1      41.549  14.972  -2.099  1.00  0.00     0.010 A 
BRANCH  14  17
ATOM     17  O5  UNK     1      41.088  11.484  -1.099  1.00  0.00    -0.361 OA
ATOM     18  H14 UNK     1      40.409  10.935  -1.527  1.00  0.00     0.217 HD
ENDBRANCH  14  17
ENDBRANCH  10  11
ENDBRANCH   9  10
ENDBRANCH   7   9
ENDBRANCH   1   7
BRANCH   2  19
ATOM     19  O2  UNK     1      38.006  20.154   1.430  1.00  0.00    -0.360 OA
ATOM     20  H11 UNK     1      37.623  20.760   2.084  1.00  0.00     0.217 HD
ENDBRANCH   2  19
BRANCH   3  21
ATOM     21  O3  UNK     1      40.512  20.384  -2.657  1.00  0.00    -0.360 OA
ATOM     22  H12 UNK     1      40.142  20.878  -3.409  1.00  0.00     0.217 HD
ENDBRANCH   3  21
BRANCH   6  23
ATOM     23  O4  UNK     1      40.395  24.118   0.300  1.00  0.00    -0.361 OA
ATOM     24  H13 UNK     1      41.204  24.088   0.839  1.00  0.00     0.217 HD
ENDBRANCH   6  23
TORSDOF 8
ENDMDL
MODEL 20
REMARK VINA RESULT:      -7.7      1.786      7.660
REMARK  8 active torsions:
REMARK  status: ('A' for Active; 'I' for Inactive)
REMARK    1  A    between atoms: O2_2  and  C8_13 
REMARK    2  A    between atoms: O3_3  and  C9_14 
REMARK    3  A    between atoms: O4_4  and  C14_19 
REMARK    4  A    between atoms: O5_5  and  C15_20 
REMARK    5  A    between atoms: C1_6  and  C2_7 
REMARK    6  A    between atoms: C1_6  and  C3_8 
REMARK    7  A    between atoms: C2_7  and  C4_9 
REMARK    8  A    between atoms: C4_9  and  C5_10 
ROOT
ATOM      1  C5  UNK     1      39.250  20.240  -0.623  1.00  0.00     0.076 A 
ATOM      2  C8  UNK     1      40.074  20.952  -1.494  1.00  0.00     0.085 A 
ATOM      3  C9  UNK     1      38.811  20.832   0.562  1.00  0.00     0.085 A 
ATOM      4  C10 UNK     1      40.460  22.255  -1.181  1.00  0.00     0.074 A 
ATOM      5  C11 UNK     1      39.196  22.135   0.875  1.00  0.00     0.074 A 
ATOM      6  C14 UNK     1      40.021  22.847   0.003  1.00  0.00     0.071 A 
ENDROOT
BRANCH   1   7
ATOM      7  C4  UNK     1      38.846  18.878  -0.951  1.00  0.00     0.165 C 
ATOM      8  O1  UNK     1      37.675  18.628  -1.295  1.00  0.00    -0.292 OA
BRANCH   7   9
ATOM      9  C2  UNK     1      39.873  17.736  -0.870  1.00  0.00     0.088 C 
BRANCH   9  10
ATOM     10  C1  UNK     1      39.972  16.919  -2.160  1.00  0.00     0.046 C 
BRANCH  10  11
ATOM     11  C3  UNK     1      40.269  15.468  -1.879  1.00  0.00    -0.058 A 
ATOM     12  C6  UNK     1      41.544  14.976  -2.113  1.00  0.00     0.010 A 
ATOM     13  C12 UNK     1      41.820  13.633  -1.853  1.00  0.00     0.037 A 
ATOM     14  C15 UNK     1      40.816  12.797  -1.363  1.00  0.00     0.065 A 
ATOM     15  C13 UNK     1      39.537  13.305  -1.133  1.00  0.00     0.037 A 
ATOM     16  C7  UNK     1      39.262  14.648  -1.392  1.00  0.00     0.010 A 
BRANCH  14  17
ATOM     17  O5  UNK     1      41.085  11.489  -1.108  1.00  0.00    -0.361 OA
ATOM     18  H14 UNK     1      40.439  10.936  -1.580  1.00  0.00     0.217 HD
ENDBRANCH  14  17
ENDBRANCH  10  11
ENDBRANCH   9  10
ENDBRANCH   7   9
ENDBRANCH   1   7
BRANCH   2  19
ATOM     19  O2  UNK     1      40.514  20.393  -2.657  1.00  0.00    -0.360 OA
ATOM     20  H11 UNK     1      40.437  21.023  -3.391  1.00  0.00     0.217 HD
ENDBRANCH   2  19
BRANCH   3  21
ATOM     21  O3  UNK     1      38.004  20.155   1.427  1.00  0.00    -0.360 OA
ATOM     22  H12 UNK     1      38.551  19.752   2.123  1.00  0.00     0.217 HD
ENDBRANCH   3  21
BRANCH   6  23
ATOM     23  O4  UNK     1      40.398  24.119   0.309  1.00  0.00    -0.361 OA
ATOM     24  H13 UNK     1      40.680  24.569  -0.506  1.00  0.00     0.217 HD
ENDBRANCH   6  23
TORSDOF 8
ENDMDL
