MODEL 1
REMARK VINA RESULT:      -8.9      0.000      0.000
REMARK  8 active torsions:
REMARK  status: ('A' for Active; 'I' for Inactive)
REMARK    1  A    between atoms: O2_2  and  C8_13 
REMARK    2  A    between atoms: O3_3  and  C9_14 
REMARK    3  A    between atoms: O4_4  and  C14_19 
REMARK    4  A    between atoms: O5_5  and  C15_20 
REMARK    5  A    between atoms: C1_6  and  C2_7 
REMARK    6  A    between atoms: C1_6  and  C3_8 
REMARK    7  A    between atoms: C2_7  and  C4_9 
REMARK    8  A    between atoms: C4_9  and  C5_10 
ROOT
ATOM      1  C5  UNK     1      39.950  14.795  -1.462  1.00  0.00     0.076 A 
ATOM      2  C8  UNK     1      41.145  14.256  -0.985  1.00  0.00     0.085 A 
ATOM      3  C9  UNK     1      38.756  14.092  -1.300  1.00  0.00     0.085 A 
ATOM      4  C10 UNK     1      41.146  13.015  -0.349  1.00  0.00     0.074 A 
ATOM      5  C11 UNK     1      38.756  12.852  -0.664  1.00  0.00     0.074 A 
ATOM      6  C14 UNK     1      39.952  12.313  -0.188  1.00  0.00     0.071 A 
ENDROOT
BRANCH   1   7
ATOM      7  C4  UNK     1      39.950  16.093  -2.127  1.00  0.00     0.165 C 
ATOM      8  O1  UNK     1      40.177  16.180  -3.349  1.00  0.00    -0.292 OA
BRANCH   7   9
ATOM      9  C2  UNK     1      39.670  17.369  -1.314  1.00  0.00     0.088 C 
BRANCH   9  10
ATOM     10  C1  UNK     1      39.754  18.648  -2.149  1.00  0.00     0.046 C 
BRANCH  10  11
ATOM     11  C3  UNK     1      39.640  19.882  -1.292  1.00  0.00    -0.058 A 
ATOM     12  C6  UNK     1      38.827  19.858  -0.169  1.00  0.00     0.010 A 
ATOM     13  C12 UNK     1      38.722  21.001   0.626  1.00  0.00     0.037 A 
ATOM     14  C15 UNK     1      39.429  22.154   0.285  1.00  0.00     0.065 A 
ATOM     15  C13 UNK     1      40.243  22.165  -0.848  1.00  0.00     0.037 A 
ATOM     16  C7  UNK     1      40.349  21.022  -1.641  1.00  0.00     0.010 A 
BRANCH  14  17
ATOM     17  O5  UNK     1      39.327  23.268   1.060  1.00  0.00    -0.361 OA
ATOM     18  H14 UNK     1      39.543  23.034   1.979  1.00  0.00     0.217 HD
ENDBRANCH  14  17
ENDBRANCH  10  11
ENDBRANCH   9  10
ENDBRANCH   7   9
ENDBRANCH   1   7
BRANCH   2  19
ATOM     19  O2  UNK     1      42.324  14.925  -1.132  1.00  0.00    -0.360 OA
ATOM     20  H11 UNK     1      43.076  14.335  -0.967  1.00  0.00     0.217 HD
ENDBRANCH   2  19
BRANCH   3  21
ATOM     21  O3  UNK     1      37.576  14.602  -1.758  1.00  0.00    -0.360 OA
ATOM     22  H12 UNK     1      37.594  15.571  -1.673  1.00  0.00     0.217 HD
ENDBRANCH   3  21
BRANCH   6  23
ATOM     23  O4  UNK     1      39.952  11.102   0.432  1.00  0.00    -0.361 OA
ATOM     24  H13 UNK     1      40.837  10.937   0.802  1.00  0.00     0.217 HD
ENDBRANCH   6  23
TORSDOF 8
ENDMDL
MODEL 2
REMARK VINA RESULT:      -8.9      0.017      1.863
REMARK  8 active torsions:
REMARK  status: ('A' for Active; 'I' for Inactive)
REMARK    1  A    between atoms: O2_2  and  C8_13 
REMARK    2  A    between atoms: O3_3  and  C9_14 
REMARK    3  A    between atoms: O4_4  and  C14_19 
REMARK    4  A    between atoms: O5_5  and  C15_20 
REMARK    5  A    between atoms: C1_6  and  C2_7 
REMARK    6  A    between atoms: C1_6  and  C3_8 
REMARK    7  A    between atoms: C2_7  and  C4_9 
REMARK    8  A    between atoms: C4_9  and  C5_10 
ROOT
ATOM      1  C5  UNK     1      39.951  14.797  -1.468  1.00  0.00     0.076 A 
ATOM      2  C8  UNK     1      38.759  14.090  -1.306  1.00  0.00     0.085 A 
ATOM      3  C9  UNK     1      41.149  14.260  -0.995  1.00  0.00     0.085 A 
ATOM      4  C10 UNK     1      38.765  12.849  -0.671  1.00  0.00     0.074 A 
ATOM      5  C11 UNK     1      41.155  13.019  -0.360  1.00  0.00     0.074 A 
ATOM      6  C14 UNK     1      39.963  12.312  -0.198  1.00  0.00     0.071 A 
ENDROOT
BRANCH   1   7
ATOM      7  C4  UNK     1      39.944  16.095  -2.132  1.00  0.00     0.165 C 
ATOM      8  O1  UNK     1      40.179  16.185  -3.353  1.00  0.00    -0.292 OA
BRANCH   7   9
ATOM      9  C2  UNK     1      39.646  17.368  -1.321  1.00  0.00     0.088 C 
BRANCH   9  10
ATOM     10  C1  UNK     1      39.738  18.649  -2.153  1.00  0.00     0.046 C 
BRANCH  10  11
ATOM     11  C3  UNK     1      39.631  19.881  -1.291  1.00  0.00    -0.058 A 
ATOM     12  C6  UNK     1      38.843  19.849  -0.151  1.00  0.00     0.010 A 
ATOM     13  C12 UNK     1      38.744  20.989   0.647  1.00  0.00     0.037 A 
ATOM     14  C15 UNK     1      39.434  22.149   0.294  1.00  0.00     0.065 A 
ATOM     15  C13 UNK     1      40.224  22.168  -0.856  1.00  0.00     0.037 A 
ATOM     16  C7  UNK     1      40.323  21.028  -1.653  1.00  0.00     0.010 A 
BRANCH  14  17
ATOM     17  O5  UNK     1      39.339  23.261   1.073  1.00  0.00    -0.361 OA
ATOM     18  H14 UNK     1      40.171  23.759   1.014  1.00  0.00     0.217 HD
ENDBRANCH  14  17
ENDBRANCH  10  11
ENDBRANCH   9  10
ENDBRANCH   7   9
ENDBRANCH   1   7
BRANCH   2  19
ATOM     19  O2  UNK     1      37.577  14.595  -1.761  1.00  0.00    -0.360 OA
ATOM     20  H11 UNK     1      36.951  14.714  -1.029  1.00  0.00     0.217 HD
ENDBRANCH   2  19
BRANCH   3  21
ATOM     21  O3  UNK     1      42.325  14.934  -1.144  1.00  0.00    -0.360 OA
ATOM     22  H12 UNK     1      42.624  15.248  -0.273  1.00  0.00     0.217 HD
ENDBRANCH   3  21
BRANCH   6  23
ATOM     23  O4  UNK     1      39.969  11.101   0.422  1.00  0.00    -0.361 OA
ATOM     24  H13 UNK     1      40.692  10.563   0.056  1.00  0.00     0.217 HD
ENDBRANCH   6  23
TORSDOF 8
ENDMDL
MODEL 3
REMARK VINA RESULT:      -8.5      0.945      1.571
REMARK  8 active torsions:
REMARK  status: ('A' for Active; 'I' for Inactive)
REMARK    1  A    between atoms: O2_2  and  C8_13 
REMARK    2  A    between atoms: O3_3  and  C9_14 
REMARK    3  A    between atoms: O4_4  and  C14_19 
REMARK    4  A    between atoms: O5_5  and  C15_20 
REMARK    5  A    between atoms: C1_6  and  C2_7 
REMARK    6  A    between atoms: C1_6  and  C3_8 
REMARK    7  A    between atoms: C2_7  and  C4_9 
REMARK    8  A    between atoms: C4_9  and  C5_10 
ROOT
ATOM      1  C5  UNK     1      40.193  14.248  -1.493  1.00  0.00     0.076 A 
ATOM      2  C8  UNK     1      41.507  14.166  -1.031  1.00  0.00     0.085 A 
ATOM      3  C9  UNK     1      39.235  13.345  -1.032  1.00  0.00     0.085 A 
ATOM      4  C10 UNK     1      41.862  13.181  -0.110  1.00  0.00     0.074 A 
ATOM      5  C11 UNK     1      39.590  12.360  -0.111  1.00  0.00     0.074 A 
ATOM      6  C14 UNK     1      40.904  12.278   0.350  1.00  0.00     0.071 A 
ENDROOT
BRANCH   1   7
ATOM      7  C4  UNK     1      39.822  15.279  -2.455  1.00  0.00     0.165 C 
ATOM      8  O1  UNK     1      39.415  14.969  -3.592  1.00  0.00    -0.292 OA
BRANCH   7   9
ATOM      9  C2  UNK     1      39.935  16.763  -2.068  1.00  0.00     0.088 C 
BRANCH   9  10
ATOM     10  C1  UNK     1      39.108  17.131  -0.835  1.00  0.00     0.046 C 
BRANCH  10  11
ATOM     11  C3  UNK     1      39.106  18.618  -0.588  1.00  0.00    -0.058 A 
ATOM     12  C6  UNK     1      39.762  19.457  -1.476  1.00  0.00     0.010 A 
ATOM     13  C12 UNK     1      39.760  20.833  -1.248  1.00  0.00     0.037 A 
ATOM     14  C15 UNK     1      39.102  21.354  -0.133  1.00  0.00     0.065 A 
ATOM     15  C13 UNK     1      38.447  20.499   0.753  1.00  0.00     0.037 A 
ATOM     16  C7  UNK     1      38.448  19.123   0.524  1.00  0.00     0.010 A 
BRANCH  14  17
ATOM     17  O5  UNK     1      39.099  22.696   0.089  1.00  0.00    -0.361 OA
ATOM     18  H14 UNK     1      38.184  23.022   0.041  1.00  0.00     0.217 HD
ENDBRANCH  14  17
ENDBRANCH  10  11
ENDBRANCH   9  10
ENDBRANCH   7   9
ENDBRANCH   1   7
BRANCH   2  19
ATOM     19  O2  UNK     1      42.459  15.038  -1.468  1.00  0.00    -0.360 OA
ATOM     20  H11 UNK     1      43.017  14.625  -2.145  1.00  0.00     0.217 HD
ENDBRANCH   2  19
BRANCH   3  21
ATOM     21  O3  UNK     1      37.945  13.408  -1.469  1.00  0.00    -0.360 OA
ATOM     22  H12 UNK     1      37.463  12.624  -1.154  1.00  0.00     0.217 HD
ENDBRANCH   3  21
BRANCH   6  23
ATOM     23  O4  UNK     1      41.251  11.316   1.248  1.00  0.00    -0.361 OA
ATOM     24  H13 UNK     1      41.981  10.790   0.880  1.00  0.00     0.217 HD
ENDBRANCH   6  23
TORSDOF 8
ENDMDL
MODEL 4
REMARK VINA RESULT:      -8.2      2.079      7.035
REMARK  8 active torsions:
REMARK  status: ('A' for Active; 'I' for Inactive)
REMARK    1  A    between atoms: O2_2  and  C8_13 
REMARK    2  A    between atoms: O3_3  and  C9_14 
REMARK    3  A    between atoms: O4_4  and  C14_19 
REMARK    4  A    between atoms: O5_5  and  C15_20 
REMARK    5  A    between atoms: C1_6  and  C2_7 
REMARK    6  A    between atoms: C1_6  and  C3_8 
REMARK    7  A    between atoms: C2_7  and  C4_9 
REMARK    8  A    between atoms: C4_9  and  C5_10 
ROOT
ATOM      1  C5  UNK     1      39.864  16.759  -2.138  1.00  0.00     0.076 A 
ATOM      2  C8  UNK     1      40.206  17.906  -2.855  1.00  0.00     0.085 A 
ATOM      3  C9  UNK     1      39.180  16.872  -0.928  1.00  0.00     0.085 A 
ATOM      4  C10 UNK     1      39.864  19.165  -2.361  1.00  0.00     0.074 A 
ATOM      5  C11 UNK     1      38.837  18.130  -0.434  1.00  0.00     0.074 A 
ATOM      6  C14 UNK     1      39.179  19.277  -1.151  1.00  0.00     0.071 A 
ENDROOT
BRANCH   1   7
ATOM      7  C4  UNK     1      40.222  15.444  -2.656  1.00  0.00     0.165 C 
ATOM      8  O1  UNK     1      39.362  14.714  -3.186  1.00  0.00    -0.292 OA
BRANCH   7   9
ATOM      9  C2  UNK     1      41.674  14.947  -2.544  1.00  0.00     0.088 C 
BRANCH   9  10
ATOM     10  C1  UNK     1      42.121  14.707  -1.101  1.00  0.00     0.046 C 
BRANCH  10  11
ATOM     11  C3  UNK     1      41.590  13.403  -0.563  1.00  0.00    -0.058 A 
ATOM     12  C6  UNK     1      41.023  13.367   0.702  1.00  0.00     0.010 A 
ATOM     13  C12 UNK     1      40.531  12.160   1.200  1.00  0.00     0.037 A 
ATOM     14  C15 UNK     1      40.614  11.002   0.426  1.00  0.00     0.065 A 
ATOM     15  C13 UNK     1      41.188  11.051  -0.845  1.00  0.00     0.037 A 
ATOM     16  C7  UNK     1      41.678  12.258  -1.342  1.00  0.00     0.010 A 
BRANCH  14  17
ATOM     17  O5  UNK     1      40.133   9.825   0.911  1.00  0.00    -0.361 OA
ATOM     18  H14 UNK     1      39.481   9.469   0.285  1.00  0.00     0.217 HD
ENDBRANCH  14  17
ENDBRANCH  10  11
ENDBRANCH   9  10
ENDBRANCH   7   9
ENDBRANCH   1   7
BRANCH   2  19
ATOM     19  O2  UNK     1      40.874  17.820  -4.040  1.00  0.00    -0.360 OA
ATOM     20  H11 UNK     1      40.256  17.872  -4.786  1.00  0.00     0.217 HD
ENDBRANCH   2  19
BRANCH   3  21
ATOM     21  O3  UNK     1      38.836  15.763  -0.212  1.00  0.00    -0.360 OA
ATOM     22  H12 UNK     1      38.712  15.016  -0.823  1.00  0.00     0.217 HD
ENDBRANCH   3  21
BRANCH   6  23
ATOM     23  O4  UNK     1      38.846  20.505  -0.668  1.00  0.00    -0.361 OA
ATOM     24  H13 UNK     1      39.545  21.138  -0.906  1.00  0.00     0.217 HD
ENDBRANCH   6  23
TORSDOF 8
ENDMDL
MODEL 5
REMARK VINA RESULT:      -8.1      2.078      7.146
REMARK  8 active torsions:
REMARK  status: ('A' for Active; 'I' for Inactive)
REMARK    1  A    between atoms: O2_2  and  C8_13 
REMARK    2  A    between atoms: O3_3  and  C9_14 
REMARK    3  A    between atoms: O4_4  and  C14_19 
REMARK    4  A    between atoms: O5_5  and  C15_20 
REMARK    5  A    between atoms: C1_6  and  C2_7 
REMARK    6  A    between atoms: C1_6  and  C3_8 
REMARK    7  A    between atoms: C2_7  and  C4_9 
REMARK    8  A    between atoms: C4_9  and  C5_10 
ROOT
ATOM      1  C5  UNK     1      39.855  16.753  -2.128  1.00  0.00     0.076 A 
ATOM      2  C8  UNK     1      39.156  16.838  -0.924  1.00  0.00     0.085 A 
ATOM      3  C9  UNK     1      40.194  17.916  -2.820  1.00  0.00     0.085 A 
ATOM      4  C10 UNK     1      38.797  18.085  -0.412  1.00  0.00     0.074 A 
ATOM      5  C11 UNK     1      39.836  19.162  -2.309  1.00  0.00     0.074 A 
ATOM      6  C14 UNK     1      39.137  19.247  -1.104  1.00  0.00     0.071 A 
ENDROOT
BRANCH   1   7
ATOM      7  C4  UNK     1      40.230  15.449  -2.663  1.00  0.00     0.165 C 
ATOM      8  O1  UNK     1      39.383  14.722  -3.217  1.00  0.00    -0.292 OA
BRANCH   7   9
ATOM      9  C2  UNK     1      41.684  14.962  -2.540  1.00  0.00     0.088 C 
BRANCH   9  10
ATOM     10  C1  UNK     1      42.120  14.721  -1.093  1.00  0.00     0.046 C 
BRANCH  10  11
ATOM     11  C3  UNK     1      41.589  13.415  -0.561  1.00  0.00    -0.058 A 
ATOM     12  C6  UNK     1      41.688  12.272  -1.339  1.00  0.00     0.010 A 
ATOM     13  C12 UNK     1      41.196  11.062  -0.846  1.00  0.00     0.037 A 
ATOM     14  C15 UNK     1      40.610  11.011   0.419  1.00  0.00     0.065 A 
ATOM     15  C13 UNK     1      40.516  12.170   1.191  1.00  0.00     0.037 A 
ATOM     16  C7  UNK     1      41.008  13.378   0.698  1.00  0.00     0.010 A 
BRANCH  14  17
ATOM     17  O5  UNK     1      40.132   9.832   0.900  1.00  0.00    -0.361 OA
ATOM     18  H14 UNK     1      39.488  10.017   1.604  1.00  0.00     0.217 HD
ENDBRANCH  14  17
ENDBRANCH  10  11
ENDBRANCH   9  10
ENDBRANCH   7   9
ENDBRANCH   1   7
BRANCH   2  19
ATOM     19  O2  UNK     1      38.815  15.715  -0.231  1.00  0.00    -0.360 OA
ATOM     20  H11 UNK     1      39.608  15.245   0.072  1.00  0.00     0.217 HD
ENDBRANCH   2  19
BRANCH   3  21
ATOM     21  O3  UNK     1      40.878  17.855  -3.999  1.00  0.00    -0.360 OA
ATOM     22  H12 UNK     1      40.782  16.964  -4.377  1.00  0.00     0.217 HD
ENDBRANCH   3  21
BRANCH   6  23
ATOM     23  O4  UNK     1      38.786  20.464  -0.605  1.00  0.00    -0.361 OA
ATOM     24  H13 UNK     1      38.815  20.426   0.366  1.00  0.00     0.217 HD
ENDBRANCH   6  23
TORSDOF 8
ENDMDL
MODEL 6
REMARK VINA RESULT:      -8.1      1.729      2.848
REMARK  8 active torsions:
REMARK  status: ('A' for Active; 'I' for Inactive)
REMARK    1  A    between atoms: O2_2  and  C8_13 
REMARK    2  A    between atoms: O3_3  and  C9_14 
REMARK    3  A    between atoms: O4_4  and  C14_19 
REMARK    4  A    between atoms: O5_5  and  C15_20 
REMARK    5  A    between atoms: C1_6  and  C2_7 
REMARK    6  A    between atoms: C1_6  and  C3_8 
REMARK    7  A    between atoms: C2_7  and  C4_9 
REMARK    8  A    between atoms: C4_9  and  C5_10 
ROOT
ATOM      1  C5  UNK     1      40.155  13.194  -1.461  1.00  0.00     0.076 A 
ATOM      2  C8  UNK     1      39.075  12.957  -0.611  1.00  0.00     0.085 A 
ATOM      3  C9  UNK     1      41.295  12.396  -1.378  1.00  0.00     0.085 A 
ATOM      4  C10 UNK     1      39.135  11.923   0.323  1.00  0.00     0.074 A 
ATOM      5  C11 UNK     1      41.357  11.362  -0.445  1.00  0.00     0.074 A 
ATOM      6  C14 UNK     1      40.276  11.125   0.407  1.00  0.00     0.071 A 
ENDROOT
BRANCH   1   7
ATOM      7  C4  UNK     1      40.090  14.276  -2.438  1.00  0.00     0.165 C 
ATOM      8  O1  UNK     1      39.237  14.260  -3.346  1.00  0.00    -0.292 OA
BRANCH   7   9
ATOM      9  C2  UNK     1      41.084  15.446  -2.350  1.00  0.00     0.088 C 
BRANCH   9  10
ATOM     10  C1  UNK     1      40.545  16.743  -2.956  1.00  0.00     0.046 C 
BRANCH  10  11
ATOM     11  C3  UNK     1      39.875  17.606  -1.918  1.00  0.00    -0.058 A 
ATOM     12  C6  UNK     1      39.316  17.014  -0.796  1.00  0.00     0.010 A 
ATOM     13  C12 UNK     1      38.696  17.813   0.165  1.00  0.00     0.037 A 
ATOM     14  C15 UNK     1      38.640  19.197  -0.009  1.00  0.00     0.065 A 
ATOM     15  C13 UNK     1      39.205  19.780  -1.143  1.00  0.00     0.037 A 
ATOM     16  C7  UNK     1      39.826  18.981  -2.103  1.00  0.00     0.010 A 
BRANCH  14  17
ATOM     17  O5  UNK     1      38.037  19.976   0.929  1.00  0.00    -0.361 OA
ATOM     18  H14 UNK     1      37.204  19.555   1.200  1.00  0.00     0.217 HD
ENDBRANCH  14  17
ENDBRANCH  10  11
ENDBRANCH   9  10
ENDBRANCH   7   9
ENDBRANCH   1   7
BRANCH   2  19
ATOM     19  O2  UNK     1      37.950  13.725  -0.676  1.00  0.00    -0.360 OA
ATOM     20  H11 UNK     1      37.289  13.316  -1.257  1.00  0.00     0.217 HD
ENDBRANCH   2  19
BRANCH   3  21
ATOM     21  O3  UNK     1      42.362  12.610  -2.200  1.00  0.00    -0.360 OA
ATOM     22  H12 UNK     1      42.745  13.482  -2.004  1.00  0.00     0.217 HD
ENDBRANCH   3  21
BRANCH   6  23
ATOM     23  O4  UNK     1      40.337  10.116   1.318  1.00  0.00    -0.361 OA
ATOM     24  H13 UNK     1      39.569   9.532   1.192  1.00  0.00     0.217 HD
ENDBRANCH   6  23
TORSDOF 8
ENDMDL
MODEL 7
REMARK VINA RESULT:      -8.1      1.731      2.274
REMARK  8 active torsions:
REMARK  status: ('A' for Active; 'I' for Inactive)
REMARK    1  A    between atoms: O2_2  and  C8_13 
REMARK    2  A    between atoms: O3_3  and  C9_14 
REMARK    3  A    between atoms: O4_4  and  C14_19 
REMARK    4  A    between atoms: O5_5  and  C15_20 
REMARK    5  A    between atoms: C1_6  and  C2_7 
REMARK    6  A    between atoms: C1_6  and  C3_8 
REMARK    7  A    between atoms: C2_7  and  C4_9 
REMARK    8  A    between atoms: C4_9  and  C5_10 
ROOT
ATOM      1  C5  UNK     1      40.159  13.186  -1.460  1.00  0.00     0.076 A 
ATOM      2  C8  UNK     1      41.299  12.385  -1.383  1.00  0.00     0.085 A 
ATOM      3  C9  UNK     1      39.083  12.951  -0.604  1.00  0.00     0.085 A 
ATOM      4  C10 UNK     1      41.363  11.350  -0.451  1.00  0.00     0.074 A 
ATOM      5  C11 UNK     1      39.147  11.916   0.329  1.00  0.00     0.074 A 
ATOM      6  C14 UNK     1      40.287  11.115   0.406  1.00  0.00     0.071 A 
ENDROOT
BRANCH   1   7
ATOM      7  C4  UNK     1      40.093  14.268  -2.436  1.00  0.00     0.165 C 
ATOM      8  O1  UNK     1      39.242  14.252  -3.346  1.00  0.00    -0.292 OA
BRANCH   7   9
ATOM      9  C2  UNK     1      41.085  15.440  -2.345  1.00  0.00     0.088 C 
BRANCH   9  10
ATOM     10  C1  UNK     1      40.546  16.736  -2.955  1.00  0.00     0.046 C 
BRANCH  10  11
ATOM     11  C3  UNK     1      39.877  17.603  -1.920  1.00  0.00    -0.058 A 
ATOM     12  C6  UNK     1      39.318  17.014  -0.796  1.00  0.00     0.010 A 
ATOM     13  C12 UNK     1      38.699  17.817   0.163  1.00  0.00     0.037 A 
ATOM     14  C15 UNK     1      38.645  19.200  -0.015  1.00  0.00     0.065 A 
ATOM     15  C13 UNK     1      39.211  19.780  -1.151  1.00  0.00     0.037 A 
ATOM     16  C7  UNK     1      39.830  18.977  -2.109  1.00  0.00     0.010 A 
BRANCH  14  17
ATOM     17  O5  UNK     1      38.043  19.983   0.920  1.00  0.00    -0.361 OA
ATOM     18  H14 UNK     1      37.646  19.413   1.601  1.00  0.00     0.217 HD
ENDBRANCH  14  17
ENDBRANCH  10  11
ENDBRANCH   9  10
ENDBRANCH   7   9
ENDBRANCH   1   7
BRANCH   2  19
ATOM     19  O2  UNK     1      42.362  12.597  -2.210  1.00  0.00    -0.360 OA
ATOM     20  H11 UNK     1      42.379  11.938  -2.922  1.00  0.00     0.217 HD
ENDBRANCH   2  19
BRANCH   3  21
ATOM     21  O3  UNK     1      37.960  13.722  -0.662  1.00  0.00    -0.360 OA
ATOM     22  H12 UNK     1      38.131  14.490  -1.235  1.00  0.00     0.217 HD
ENDBRANCH   3  21
BRANCH   6  23
ATOM     23  O4  UNK     1      40.349  10.106   1.315  1.00  0.00    -0.361 OA
ATOM     24  H13 UNK     1      40.860   9.370   0.936  1.00  0.00     0.217 HD
ENDBRANCH   6  23
TORSDOF 8
ENDMDL
MODEL 8
REMARK VINA RESULT:      -8.0      3.440      7.273
REMARK  8 active torsions:
REMARK  status: ('A' for Active; 'I' for Inactive)
REMARK    1  A    between atoms: O2_2  and  C8_13 
REMARK    2  A    between atoms: O3_3  and  C9_14 
REMARK    3  A    between atoms: O4_4  and  C14_19 
REMARK    4  A    between atoms: O5_5  and  C15_20 
REMARK    5  A    between atoms: C1_6  and  C2_7 
REMARK    6  A    between atoms: C1_6  and  C3_8 
REMARK    7  A    between atoms: C2_7  and  C4_9 
REMARK    8  A    between atoms: C4_9  and  C5_10 
ROOT
ATOM      1  C5  UNK     1      40.220  13.703  -1.159  1.00  0.00     0.076 A 
ATOM      2  C8  UNK     1      40.873  14.935  -1.181  1.00  0.00     0.085 A 
ATOM      3  C9  UNK     1      38.834  13.651  -1.011  1.00  0.00     0.085 A 
ATOM      4  C10 UNK     1      40.141  16.115  -1.053  1.00  0.00     0.074 A 
ATOM      5  C11 UNK     1      38.101  14.830  -0.884  1.00  0.00     0.074 A 
ATOM      6  C14 UNK     1      38.755  16.063  -0.905  1.00  0.00     0.071 A 
ENDROOT
BRANCH   1   7
ATOM      7  C4  UNK     1      40.987  12.469  -1.293  1.00  0.00     0.165 C 
ATOM      8  O1  UNK     1      41.538  12.178  -2.372  1.00  0.00    -0.292 OA
BRANCH   7   9
ATOM      9  C2  UNK     1      41.117  11.516  -0.093  1.00  0.00     0.088 C 
BRANCH   9  10
ATOM     10  C1  UNK     1      41.470  12.232   1.212  1.00  0.00     0.046 C 
BRANCH  10  11
ATOM     11  C3  UNK     1      40.588  11.785   2.349  1.00  0.00    -0.058 A 
ATOM     12  C6  UNK     1      40.017  10.522   2.313  1.00  0.00     0.010 A 
ATOM     13  C12 UNK     1      39.201  10.108   3.366  1.00  0.00     0.037 A 
ATOM     14  C15 UNK     1      38.963  10.963   4.443  1.00  0.00     0.065 A 
ATOM     15  C13 UNK     1      39.543  12.232   4.466  1.00  0.00     0.037 A 
ATOM     16  C7  UNK     1      40.360  12.645   3.414  1.00  0.00     0.010 A 
BRANCH  14  17
ATOM     17  O5  UNK     1      38.168  10.559   5.470  1.00  0.00    -0.361 OA
ATOM     18  H14 UNK     1      38.688  10.560   6.291  1.00  0.00     0.217 HD
ENDBRANCH  14  17
ENDBRANCH  10  11
ENDBRANCH   9  10
ENDBRANCH   7   9
ENDBRANCH   1   7
BRANCH   2  19
ATOM     19  O2  UNK     1      42.227  15.009  -1.325  1.00  0.00    -0.360 OA
ATOM     20  H11 UNK     1      42.474  15.793  -1.841  1.00  0.00     0.217 HD
ENDBRANCH   2  19
BRANCH   3  21
ATOM     21  O3  UNK     1      38.176  12.457  -0.988  1.00  0.00    -0.360 OA
ATOM     22  H12 UNK     1      37.594  12.429  -0.209  1.00  0.00     0.217 HD
ENDBRANCH   3  21
BRANCH   6  23
ATOM     23  O4  UNK     1      38.040  17.214  -0.780  1.00  0.00    -0.361 OA
ATOM     24  H13 UNK     1      38.093  17.520   0.142  1.00  0.00     0.217 HD
ENDBRANCH   6  23
TORSDOF 8
ENDMDL
MODEL 9
REMARK VINA RESULT:      -8.0      1.661      7.617
REMARK  8 active torsions:
REMARK  status: ('A' for Active; 'I' for Inactive)
REMARK    1  A    between atoms: O2_2  and  C8_13 
REMARK    2  A    between atoms: O3_3  and  C9_14 
REMARK    3  A    between atoms: O4_4  and  C14_19 
REMARK    4  A    between atoms: O5_5  and  C15_20 
REMARK    5  A    between atoms: C1_6  and  C2_7 
REMARK    6  A    between atoms: C1_6  and  C3_8 
REMARK    7  A    between atoms: C2_7  and  C4_9 
REMARK    8  A    between atoms: C4_9  and  C5_10 
ROOT
ATOM      1  C5  UNK     1      39.089  18.179  -0.724  1.00  0.00     0.076 A 
ATOM      2  C8  UNK     1      38.424  18.770   0.350  1.00  0.00     0.085 A 
ATOM      3  C9  UNK     1      39.736  18.978  -1.667  1.00  0.00     0.085 A 
ATOM      4  C10 UNK     1      38.405  20.158   0.482  1.00  0.00     0.074 A 
ATOM      5  C11 UNK     1      39.719  20.366  -1.535  1.00  0.00     0.074 A 
ATOM      6  C14 UNK     1      39.053  20.957  -0.460  1.00  0.00     0.071 A 
ENDROOT
BRANCH   1   7
ATOM      7  C4  UNK     1      39.107  16.727  -0.861  1.00  0.00     0.165 C 
ATOM      8  O1  UNK     1      38.044  16.086  -0.966  1.00  0.00    -0.292 OA
BRANCH   7   9
ATOM      9  C2  UNK     1      40.450  15.978  -0.873  1.00  0.00     0.088 C 
BRANCH   9  10
ATOM     10  C1  UNK     1      40.463  14.777  -1.822  1.00  0.00     0.046 C 
BRANCH  10  11
ATOM     11  C3  UNK     1      40.592  13.476  -1.072  1.00  0.00    -0.058 A 
ATOM     12  C6  UNK     1      41.323  12.438  -1.629  1.00  0.00     0.010 A 
ATOM     13  C12 UNK     1      41.442  11.233  -0.935  1.00  0.00     0.037 A 
ATOM     14  C15 UNK     1      40.827  11.081   0.309  1.00  0.00     0.065 A 
ATOM     15  C13 UNK     1      40.094  12.134   0.857  1.00  0.00     0.037 A 
ATOM     16  C7  UNK     1      39.976  13.338   0.163  1.00  0.00     0.010 A 
BRANCH  14  17
ATOM     17  O5  UNK     1      40.944   9.908   0.986  1.00  0.00    -0.361 OA
ATOM     18  H14 UNK     1      40.737  10.062   1.923  1.00  0.00     0.217 HD
ENDBRANCH  14  17
ENDBRANCH  10  11
ENDBRANCH   9  10
ENDBRANCH   7   9
ENDBRANCH   1   7
BRANCH   2  19
ATOM     19  O2  UNK     1      37.784  18.008   1.283  1.00  0.00    -0.360 OA
ATOM     20  H11 UNK     1      36.906  18.371   1.479  1.00  0.00     0.217 HD
ENDBRANCH   2  19
BRANCH   3  21
ATOM     21  O3  UNK     1      40.393  18.422  -2.724  1.00  0.00    -0.360 OA
ATOM     22  H12 UNK     1      41.235  18.890  -2.858  1.00  0.00     0.217 HD
ENDBRANCH   3  21
BRANCH   6  23
ATOM     23  O4  UNK     1      39.035  22.311  -0.332  1.00  0.00    -0.361 OA
ATOM     24  H13 UNK     1      39.857  22.674  -0.705  1.00  0.00     0.217 HD
ENDBRANCH   6  23
TORSDOF 8
ENDMDL
MODEL 10
REMARK VINA RESULT:      -8.0      3.438      7.465
REMARK  8 active torsions:
REMARK  status: ('A' for Active; 'I' for Inactive)
REMARK    1  A    between atoms: O2_2  and  C8_13 
REMARK    2  A    between atoms: O3_3  and  C9_14 
REMARK    3  A    between atoms: O4_4  and  C14_19 
REMARK    4  A    between atoms: O5_5  and  C15_20 
REMARK    5  A    between atoms: C1_6  and  C2_7 
REMARK    6  A    between atoms: C1_6  and  C3_8 
REMARK    7  A    between atoms: C2_7  and  C4_9 
REMARK    8  A    between atoms: C4_9  and  C5_10 
ROOT
ATOM      1  C5  UNK     1      40.221  13.712  -1.162  1.00  0.00     0.076 A 
ATOM      2  C8  UNK     1      38.836  13.650  -1.016  1.00  0.00     0.085 A 
ATOM      3  C9  UNK     1      40.866  14.948  -1.174  1.00  0.00     0.085 A 
ATOM      4  C10 UNK     1      38.095  14.824  -0.881  1.00  0.00     0.074 A 
ATOM      5  C11 UNK     1      40.127  16.122  -1.039  1.00  0.00     0.074 A 
ATOM      6  C14 UNK     1      38.740  16.060  -0.893  1.00  0.00     0.071 A 
ENDROOT
BRANCH   1   7
ATOM      7  C4  UNK     1      40.995  12.483  -1.303  1.00  0.00     0.165 C 
ATOM      8  O1  UNK     1      41.525  12.187  -2.391  1.00  0.00    -0.292 OA
BRANCH   7   9
ATOM      9  C2  UNK     1      41.157  11.540  -0.099  1.00  0.00     0.088 C 
BRANCH   9  10
ATOM     10  C1  UNK     1      41.475  12.274   1.206  1.00  0.00     0.046 C 
BRANCH  10  11
ATOM     11  C3  UNK     1      40.591  11.811   2.335  1.00  0.00    -0.058 A 
ATOM     12  C6  UNK     1      40.007  10.556   2.273  1.00  0.00     0.010 A 
ATOM     13  C12 UNK     1      39.189  10.127   3.319  1.00  0.00     0.037 A 
ATOM     14  C15 UNK     1      38.963  10.961   4.415  1.00  0.00     0.065 A 
ATOM     15  C13 UNK     1      39.557  12.223   4.465  1.00  0.00     0.037 A 
ATOM     16  C7  UNK     1      40.375  12.650   3.419  1.00  0.00     0.010 A 
BRANCH  14  17
ATOM     17  O5  UNK     1      38.167  10.543   5.435  1.00  0.00    -0.361 OA
ATOM     18  H14 UNK     1      38.507   9.698   5.775  1.00  0.00     0.217 HD
ENDBRANCH  14  17
ENDBRANCH  10  11
ENDBRANCH   9  10
ENDBRANCH   7   9
ENDBRANCH   1   7
BRANCH   2  19
ATOM     19  O2  UNK     1      38.185  12.452  -1.001  1.00  0.00    -0.360 OA
ATOM     20  H11 UNK     1      38.466  11.900  -1.748  1.00  0.00     0.217 HD
ENDBRANCH   2  19
BRANCH   3  21
ATOM     21  O3  UNK     1      42.220  15.031  -1.316  1.00  0.00    -0.360 OA
ATOM     22  H12 UNK     1      42.430  15.719  -1.971  1.00  0.00     0.217 HD
ENDBRANCH   3  21
BRANCH   6  23
ATOM     23  O4  UNK     1      38.018  17.206  -0.762  1.00  0.00    -0.361 OA
ATOM     24  H13 UNK     1      37.542  17.184   0.086  1.00  0.00     0.217 HD
ENDBRANCH   6  23
TORSDOF 8
ENDMDL
MODEL 11
REMARK VINA RESULT:      -8.0      1.661      7.469
REMARK  8 active torsions:
REMARK  status: ('A' for Active; 'I' for Inactive)
REMARK    1  A    between atoms: O2_2  and  C8_13 
REMARK    2  A    between atoms: O3_3  and  C9_14 
REMARK    3  A    between atoms: O4_4  and  C14_19 
REMARK    4  A    between atoms: O5_5  and  C15_20 
REMARK    5  A    between atoms: C1_6  and  C2_7 
REMARK    6  A    between atoms: C1_6  and  C3_8 
REMARK    7  A    between atoms: C2_7  and  C4_9 
REMARK    8  A    between atoms: C4_9  and  C5_10 
ROOT
ATOM      1  C5  UNK     1      39.088  18.180  -0.722  1.00  0.00     0.076 A 
ATOM      2  C8  UNK     1      39.736  18.978  -1.665  1.00  0.00     0.085 A 
ATOM      3  C9  UNK     1      38.423  18.772   0.352  1.00  0.00     0.085 A 
ATOM      4  C10 UNK     1      39.719  20.366  -1.535  1.00  0.00     0.074 A 
ATOM      5  C11 UNK     1      38.405  20.160   0.483  1.00  0.00     0.074 A 
ATOM      6  C14 UNK     1      39.054  20.958  -0.461  1.00  0.00     0.071 A 
ENDROOT
BRANCH   1   7
ATOM      7  C4  UNK     1      39.106  16.728  -0.860  1.00  0.00     0.165 C 
ATOM      8  O1  UNK     1      38.043  16.087  -0.965  1.00  0.00    -0.292 OA
BRANCH   7   9
ATOM      9  C2  UNK     1      40.449  15.978  -0.873  1.00  0.00     0.088 C 
BRANCH   9  10
ATOM     10  C1  UNK     1      40.461  14.778  -1.821  1.00  0.00     0.046 C 
BRANCH  10  11
ATOM     11  C3  UNK     1      40.589  13.477  -1.072  1.00  0.00    -0.058 A 
ATOM     12  C6  UNK     1      39.975  13.338   0.164  1.00  0.00     0.010 A 
ATOM     13  C12 UNK     1      40.094  12.134   0.858  1.00  0.00     0.037 A 
ATOM     14  C15 UNK     1      40.828  11.081   0.308  1.00  0.00     0.065 A 
ATOM     15  C13 UNK     1      41.441  11.234  -0.936  1.00  0.00     0.037 A 
ATOM     16  C7  UNK     1      41.321  12.438  -1.629  1.00  0.00     0.010 A 
BRANCH  14  17
ATOM     17  O5  UNK     1      40.942   9.907   0.984  1.00  0.00    -0.361 OA
ATOM     18  H14 UNK     1      41.674   9.978   1.620  1.00  0.00     0.217 HD
ENDBRANCH  14  17
ENDBRANCH  10  11
ENDBRANCH   9  10
ENDBRANCH   7   9
ENDBRANCH   1   7
BRANCH   2  19
ATOM     19  O2  UNK     1      40.392  18.421  -2.723  1.00  0.00    -0.360 OA
ATOM     20  H11 UNK     1      39.906  18.579  -3.549  1.00  0.00     0.217 HD
ENDBRANCH   2  19
BRANCH   3  21
ATOM     21  O3  UNK     1      37.783  18.010   1.285  1.00  0.00    -0.360 OA
ATOM     22  H12 UNK     1      38.402  17.345   1.631  1.00  0.00     0.217 HD
ENDBRANCH   3  21
BRANCH   6  23
ATOM     23  O4  UNK     1      39.037  22.312  -0.332  1.00  0.00    -0.361 OA
ATOM     24  H13 UNK     1      38.935  22.711  -1.213  1.00  0.00     0.217 HD
ENDBRANCH   6  23
TORSDOF 8
ENDMDL
MODEL 12
REMARK VINA RESULT:      -7.7      1.660      7.483
REMARK  8 active torsions:
REMARK  status: ('A' for Active; 'I' for Inactive)
REMARK    1  A    between atoms: O2_2  and  C8_13 
REMARK    2  A    between atoms: O3_3  and  C9_14 
REMARK    3  A    between atoms: O4_4  and  C14_19 
REMARK    4  A    between atoms: O5_5  and  C15_20 
REMARK    5  A    between atoms: C1_6  and  C2_7 
REMARK    6  A    between atoms: C1_6  and  C3_8 
REMARK    7  A    between atoms: C2_7  and  C4_9 
REMARK    8  A    between atoms: C4_9  and  C5_10 
ROOT
ATOM      1  C5  UNK     1      39.489  19.612  -1.127  1.00  0.00     0.076 A 
ATOM      2  C8  UNK     1      38.748  19.447   0.043  1.00  0.00     0.085 A 
ATOM      3  C9  UNK     1      40.063  20.849  -1.419  1.00  0.00     0.085 A 
ATOM      4  C10 UNK     1      38.580  20.518   0.920  1.00  0.00     0.074 A 
ATOM      5  C11 UNK     1      39.897  21.920  -0.543  1.00  0.00     0.074 A 
ATOM      6  C14 UNK     1      39.155  21.755   0.628  1.00  0.00     0.071 A 
ENDROOT
BRANCH   1   7
ATOM      7  C4  UNK     1      39.664  18.490  -2.043  1.00  0.00     0.165 C 
ATOM      8  O1  UNK     1      39.679  18.674  -3.276  1.00  0.00    -0.292 OA
BRANCH   7   9
ATOM      9  C2  UNK     1      39.828  17.066  -1.486  1.00  0.00     0.088 C 
BRANCH   9  10
ATOM     10  C1  UNK     1      40.360  16.071  -2.520  1.00  0.00     0.046 C 
BRANCH  10  11
ATOM     11  C3  UNK     1      40.524  14.693  -1.932  1.00  0.00    -0.058 A 
ATOM     12  C6  UNK     1      39.441  14.078  -1.323  1.00  0.00     0.010 A 
ATOM     13  C12 UNK     1      39.594  12.801  -0.780  1.00  0.00     0.037 A 
ATOM     14  C15 UNK     1      40.829  12.156  -0.851  1.00  0.00     0.065 A 
ATOM     15  C13 UNK     1      41.911  12.787  -1.466  1.00  0.00     0.037 A 
ATOM     16  C7  UNK     1      41.758  14.062  -2.010  1.00  0.00     0.010 A 
BRANCH  14  17
ATOM     17  O5  UNK     1      40.977  10.911  -0.323  1.00  0.00    -0.361 OA
ATOM     18  H14 UNK     1      41.888  10.609  -0.477  1.00  0.00     0.217 HD
ENDBRANCH  14  17
ENDBRANCH  10  11
ENDBRANCH   9  10
ENDBRANCH   7   9
ENDBRANCH   1   7
BRANCH   2  19
ATOM     19  O2  UNK     1      38.178  18.246   0.349  1.00  0.00    -0.360 OA
ATOM     20  H11 UNK     1      38.698  17.516  -0.023  1.00  0.00     0.217 HD
ENDBRANCH   2  19
BRANCH   3  21
ATOM     21  O3  UNK     1      40.792  21.032  -2.557  1.00  0.00    -0.360 OA
ATOM     22  H12 UNK     1      41.249  20.202  -2.779  1.00  0.00     0.217 HD
ENDBRANCH   3  21
BRANCH   6  23
ATOM     23  O4  UNK     1      38.991  22.801   1.482  1.00  0.00    -0.361 OA
ATOM     24  H13 UNK     1      38.547  23.527   1.011  1.00  0.00     0.217 HD
ENDBRANCH   6  23
TORSDOF 8
ENDMDL
MODEL 13
REMARK VINA RESULT:      -7.7      1.658      7.367
REMARK  8 active torsions:
REMARK  status: ('A' for Active; 'I' for Inactive)
REMARK    1  A    between atoms: O2_2  and  C8_13 
REMARK    2  A    between atoms: O3_3  and  C9_14 
REMARK    3  A    between atoms: O4_4  and  C14_19 
REMARK    4  A    between atoms: O5_5  and  C15_20 
REMARK    5  A    between atoms: C1_6  and  C2_7 
REMARK    6  A    between atoms: C1_6  and  C3_8 
REMARK    7  A    between atoms: C2_7  and  C4_9 
REMARK    8  A    between atoms: C4_9  and  C5_10 
ROOT
ATOM      1  C5  UNK     1      39.489  19.600  -1.110  1.00  0.00     0.076 A 
ATOM      2  C8  UNK     1      40.066  20.836  -1.401  1.00  0.00     0.085 A 
ATOM      3  C9  UNK     1      38.740  19.437   0.055  1.00  0.00     0.085 A 
ATOM      4  C10 UNK     1      39.895  21.908  -0.526  1.00  0.00     0.074 A 
ATOM      5  C11 UNK     1      38.569  20.508   0.931  1.00  0.00     0.074 A 
ATOM      6  C14 UNK     1      39.147  21.745   0.640  1.00  0.00     0.071 A 
ENDROOT
BRANCH   1   7
ATOM      7  C4  UNK     1      39.667  18.479  -2.026  1.00  0.00     0.165 C 
ATOM      8  O1  UNK     1      39.678  18.662  -3.259  1.00  0.00    -0.292 OA
BRANCH   7   9
ATOM      9  C2  UNK     1      39.842  17.056  -1.469  1.00  0.00     0.088 C 
BRANCH   9  10
ATOM     10  C1  UNK     1      40.342  16.055  -2.513  1.00  0.00     0.046 C 
BRANCH  10  11
ATOM     11  C3  UNK     1      40.514  14.678  -1.927  1.00  0.00    -0.058 A 
ATOM     12  C6  UNK     1      39.429  14.048  -1.337  1.00  0.00     0.010 A 
ATOM     13  C12 UNK     1      39.587  12.772  -0.794  1.00  0.00     0.037 A 
ATOM     14  C15 UNK     1      40.831  12.142  -0.847  1.00  0.00     0.065 A 
ATOM     15  C13 UNK     1      41.915  12.787  -1.443  1.00  0.00     0.037 A 
ATOM     16  C7  UNK     1      41.756  14.062  -1.986  1.00  0.00     0.010 A 
BRANCH  14  17
ATOM     17  O5  UNK     1      40.986  10.898  -0.319  1.00  0.00    -0.361 OA
ATOM     18  H14 UNK     1      40.276  10.323  -0.653  1.00  0.00     0.217 HD
ENDBRANCH  14  17
ENDBRANCH  10  11
ENDBRANCH   9  10
ENDBRANCH   7   9
ENDBRANCH   1   7
BRANCH   2  19
ATOM     19  O2  UNK     1      40.801  21.018  -2.534  1.00  0.00    -0.360 OA
ATOM     20  H11 UNK     1      40.846  21.959  -2.766  1.00  0.00     0.217 HD
ENDBRANCH   2  19
BRANCH   3  21
ATOM     21  O3  UNK     1      38.167  18.237   0.358  1.00  0.00    -0.360 OA
ATOM     22  H12 UNK     1      37.202  18.310   0.252  1.00  0.00     0.217 HD
ENDBRANCH   3  21
BRANCH   6  23
ATOM     23  O4  UNK     1      38.981  22.791   1.495  1.00  0.00    -0.361 OA
ATOM     24  H13 UNK     1      38.492  23.497   1.037  1.00  0.00     0.217 HD
ENDBRANCH   6  23
TORSDOF 8
ENDMDL
MODEL 14
REMARK VINA RESULT:      -7.7      2.173      7.093
REMARK  8 active torsions:
REMARK  status: ('A' for Active; 'I' for Inactive)
REMARK    1  A    between atoms: O2_2  and  C8_13 
REMARK    2  A    between atoms: O3_3  and  C9_14 
REMARK    3  A    between atoms: O4_4  and  C14_19 
REMARK    4  A    between atoms: O5_5  and  C15_20 
REMARK    5  A    between atoms: C1_6  and  C2_7 
REMARK    6  A    between atoms: C1_6  and  C3_8 
REMARK    7  A    between atoms: C2_7  and  C4_9 
REMARK    8  A    between atoms: C4_9  and  C5_10 
ROOT
ATOM      1  C5  UNK     1      39.984  16.534  -2.015  1.00  0.00     0.076 A 
ATOM      2  C8  UNK     1      40.267  17.600  -2.868  1.00  0.00     0.085 A 
ATOM      3  C9  UNK     1      39.303  16.760  -0.819  1.00  0.00     0.085 A 
ATOM      4  C10 UNK     1      39.870  18.892  -2.525  1.00  0.00     0.074 A 
ATOM      5  C11 UNK     1      38.905  18.051  -0.475  1.00  0.00     0.074 A 
ATOM      6  C14 UNK     1      39.189  19.118  -1.329  1.00  0.00     0.071 A 
ENDROOT
BRANCH   1   7
ATOM      7  C4  UNK     1      40.400  15.183  -2.374  1.00  0.00     0.165 C 
ATOM      8  O1  UNK     1      39.696  14.480  -3.125  1.00  0.00    -0.292 OA
BRANCH   7   9
ATOM      9  C2  UNK     1      41.718  14.615  -1.820  1.00  0.00     0.088 C 
BRANCH   9  10
ATOM     10  C1  UNK     1      41.793  13.088  -1.883  1.00  0.00     0.046 C 
BRANCH  10  11
ATOM     11  C3  UNK     1      41.298  12.453  -0.609  1.00  0.00    -0.058 A 
ATOM     12  C6  UNK     1      41.154  11.076  -0.546  1.00  0.00     0.010 A 
ATOM     13  C12 UNK     1      40.696  10.488   0.634  1.00  0.00     0.037 A 
ATOM     14  C15 UNK     1      40.385  11.286   1.736  1.00  0.00     0.065 A 
ATOM     15  C13 UNK     1      40.534  12.671   1.658  1.00  0.00     0.037 A 
ATOM     16  C7  UNK     1      40.992  13.258   0.479  1.00  0.00     0.010 A 
BRANCH  14  17
ATOM     17  O5  UNK     1      39.940  10.713   2.887  1.00  0.00    -0.361 OA
ATOM     18  H14 UNK     1      40.383  11.135   3.642  1.00  0.00     0.217 HD
ENDBRANCH  14  17
ENDBRANCH  10  11
ENDBRANCH   9  10
ENDBRANCH   7   9
ENDBRANCH   1   7
BRANCH   2  19
ATOM     19  O2  UNK     1      40.931  17.402  -4.042  1.00  0.00    -0.360 OA
ATOM     20  H11 UNK     1      41.243  18.246  -4.406  1.00  0.00     0.217 HD
ENDBRANCH   2  19
BRANCH   3  21
ATOM     21  O3  UNK     1      39.016  15.731   0.030  1.00  0.00    -0.360 OA
ATOM     22  H12 UNK     1      39.515  14.943  -0.247  1.00  0.00     0.217 HD
ENDBRANCH   3  21
BRANCH   6  23
ATOM     23  O4  UNK     1      38.801  20.379  -0.994  1.00  0.00    -0.361 OA
ATOM     24  H13 UNK     1      39.488  20.782  -0.437  1.00  0.00     0.217 HD
ENDBRANCH   6  23
TORSDOF 8
ENDMDL
MODEL 15
REMARK VINA RESULT:      -7.7      1.781      7.644
REMARK  8 active torsions:
REMARK  status: ('A' for Active; 'I' for Inactive)
REMARK    1  A    between atoms: O2_2  and  C8_13 
REMARK    2  A    between atoms: O3_3  and  C9_14 
REMARK    3  A    between atoms: O4_4  and  C14_19 
REMARK    4  A    between atoms: O5_5  and  C15_20 
REMARK    5  A    between atoms: C1_6  and  C2_7 
REMARK    6  A    between atoms: C1_6  and  C3_8 
REMARK    7  A    between atoms: C2_7  and  C4_9 
REMARK    8  A    between atoms: C4_9  and  C5_10 
ROOT
ATOM      1  C5  UNK     1      39.221  20.124  -0.587  1.00  0.00     0.076 A 
ATOM      2  C8  UNK     1      40.045  20.823  -1.469  1.00  0.00     0.085 A 
ATOM      3  C9  UNK     1      38.782  20.733   0.588  1.00  0.00     0.085 A 
ATOM      4  C10 UNK     1      40.431  22.131  -1.175  1.00  0.00     0.074 A 
ATOM      5  C11 UNK     1      39.166  22.041   0.883  1.00  0.00     0.074 A 
ATOM      6  C14 UNK     1      39.992  22.740   0.001  1.00  0.00     0.071 A 
ENDROOT
BRANCH   1   7
ATOM      7  C4  UNK     1      38.818  18.757  -0.896  1.00  0.00     0.165 C 
ATOM      8  O1  UNK     1      37.654  18.505  -1.264  1.00  0.00    -0.292 OA
BRANCH   7   9
ATOM      9  C2  UNK     1      39.836  17.611  -0.763  1.00  0.00     0.088 C 
BRANCH   9  10
ATOM     10  C1  UNK     1      40.039  16.830  -2.064  1.00  0.00     0.046 C 
BRANCH  10  11
ATOM     11  C3  UNK     1      40.331  15.376  -1.800  1.00  0.00    -0.058 A 
ATOM     12  C6  UNK     1      41.603  14.880  -2.045  1.00  0.00     0.010 A 
ATOM     13  C12 UNK     1      41.873  13.534  -1.801  1.00  0.00     0.037 A 
ATOM     14  C15 UNK     1      40.867  12.697  -1.315  1.00  0.00     0.065 A 
ATOM     15  C13 UNK     1      39.592  13.208  -1.073  1.00  0.00     0.037 A 
ATOM     16  C7  UNK     1      39.322  14.555  -1.317  1.00  0.00     0.010 A 
BRANCH  14  17
ATOM     17  O5  UNK     1      41.132  11.384  -1.075  1.00  0.00    -0.361 OA
ATOM     18  H14 UNK     1      41.915  11.122  -1.587  1.00  0.00     0.217 HD
ENDBRANCH  14  17
ENDBRANCH  10  11
ENDBRANCH   9  10
ENDBRANCH   7   9
ENDBRANCH   1   7
BRANCH   2  19
ATOM     19  O2  UNK     1      40.486  20.247  -2.623  1.00  0.00    -0.360 OA
ATOM     20  H11 UNK     1      41.240  19.662  -2.448  1.00  0.00     0.217 HD
ENDBRANCH   2  19
BRANCH   3  21
ATOM     21  O3  UNK     1      37.975  20.068   1.463  1.00  0.00    -0.360 OA
ATOM     22  H12 UNK     1      37.094  20.480   1.460  1.00  0.00     0.217 HD
ENDBRANCH   3  21
BRANCH   6  23
ATOM     23  O4  UNK     1      40.368  24.016   0.288  1.00  0.00    -0.361 OA
ATOM     24  H13 UNK     1      39.670  24.438   0.818  1.00  0.00     0.217 HD
ENDBRANCH   6  23
TORSDOF 8
ENDMDL
MODEL 16
REMARK VINA RESULT:      -7.0      3.424      6.839
REMARK  8 active torsions:
REMARK  status: ('A' for Active; 'I' for Inactive)
REMARK    1  A    between atoms: O2_2  and  C8_13 
REMARK    2  A    between atoms: O3_3  and  C9_14 
REMARK    3  A    between atoms: O4_4  and  C14_19 
REMARK    4  A    between atoms: O5_5  and  C15_20 
REMARK    5  A    between atoms: C1_6  and  C2_7 
REMARK    6  A    between atoms: C1_6  and  C3_8 
REMARK    7  A    between atoms: C2_7  and  C4_9 
REMARK    8  A    between atoms: C4_9  and  C5_10 
ROOT
ATOM      1  C5  UNK     1      40.128  14.980  -1.497  1.00  0.00     0.076 A 
ATOM      2  C8  UNK     1      39.595  16.125  -0.905  1.00  0.00     0.085 A 
ATOM      3  C9  UNK     1      39.280  13.965  -1.940  1.00  0.00     0.085 A 
ATOM      4  C10 UNK     1      38.214  16.255  -0.756  1.00  0.00     0.074 A 
ATOM      5  C11 UNK     1      37.900  14.095  -1.793  1.00  0.00     0.074 A 
ATOM      6  C14 UNK     1      37.366  15.240  -1.200  1.00  0.00     0.071 A 
ENDROOT
BRANCH   1   7
ATOM      7  C4  UNK     1      41.572  14.845  -1.652  1.00  0.00     0.165 C 
ATOM      8  O1  UNK     1      42.159  15.370  -2.618  1.00  0.00    -0.292 OA
BRANCH   7   9
ATOM      9  C2  UNK     1      42.381  14.045  -0.616  1.00  0.00     0.088 C 
BRANCH   9  10
ATOM     10  C1  UNK     1      42.196  12.532  -0.743  1.00  0.00     0.046 C 
BRANCH  10  11
ATOM     11  C3  UNK     1      41.339  11.981   0.368  1.00  0.00    -0.058 A 
ATOM     12  C6  UNK     1      40.920  10.660   0.315  1.00  0.00     0.010 A 
ATOM     13  C12 UNK     1      40.127  10.150   1.344  1.00  0.00     0.037 A 
ATOM     14  C15 UNK     1      39.762  10.968   2.414  1.00  0.00     0.065 A 
ATOM     15  C13 UNK     1      40.191  12.295   2.455  1.00  0.00     0.037 A 
ATOM     16  C7  UNK     1      40.984  12.804   1.427  1.00  0.00     0.010 A 
BRANCH  14  17
ATOM     17  O5  UNK     1      38.990  10.470   3.417  1.00  0.00    -0.361 OA
ATOM     18  H14 UNK     1      39.463  10.575   4.260  1.00  0.00     0.217 HD
ENDBRANCH  14  17
ENDBRANCH  10  11
ENDBRANCH   9  10
ENDBRANCH   7   9
ENDBRANCH   1   7
BRANCH   2  19
ATOM     19  O2  UNK     1      40.405  17.129  -0.464  1.00  0.00    -0.360 OA
ATOM     20  H11 UNK     1      41.224  17.161  -0.985  1.00  0.00     0.217 HD
ENDBRANCH   2  19
BRANCH   3  21
ATOM     21  O3  UNK     1      39.781  12.838  -2.522  1.00  0.00    -0.360 OA
ATOM     22  H12 UNK     1      39.686  12.092  -1.905  1.00  0.00     0.217 HD
ENDBRANCH   3  21
BRANCH   6  23
ATOM     23  O4  UNK     1      36.019  15.366  -1.055  1.00  0.00    -0.361 OA
ATOM     24  H13 UNK     1      35.625  15.555  -1.924  1.00  0.00     0.217 HD
ENDBRANCH   6  23
TORSDOF 8
ENDMDL
MODEL 17
REMARK VINA RESULT:      -7.0      2.182      3.243
REMARK  8 active torsions:
REMARK  status: ('A' for Active; 'I' for Inactive)
REMARK    1  A    between atoms: O2_2  and  C8_13 
REMARK    2  A    between atoms: O3_3  and  C9_14 
REMARK    3  A    between atoms: O4_4  and  C14_19 
REMARK    4  A    between atoms: O5_5  and  C15_20 
REMARK    5  A    between atoms: C1_6  and  C2_7 
REMARK    6  A    between atoms: C1_6  and  C3_8 
REMARK    7  A    between atoms: C2_7  and  C4_9 
REMARK    8  A    between atoms: C4_9  and  C5_10 
ROOT
ATOM      1  C5  UNK     1      40.998  12.550  -0.415  1.00  0.00     0.076 A 
ATOM      2  C8  UNK     1      41.310  11.202  -0.594  1.00  0.00     0.085 A 
ATOM      3  C9  UNK     1      40.493  12.992   0.808  1.00  0.00     0.085 A 
ATOM      4  C10 UNK     1      41.116  10.297   0.449  1.00  0.00     0.074 A 
ATOM      5  C11 UNK     1      40.299  12.088   1.851  1.00  0.00     0.074 A 
ATOM      6  C14 UNK     1      40.611  10.739   1.672  1.00  0.00     0.071 A 
ENDROOT
BRANCH   1   7
ATOM      7  C4  UNK     1      41.201  13.496  -1.506  1.00  0.00     0.165 C 
ATOM      8  O1  UNK     1      42.345  13.726  -1.943  1.00  0.00    -0.292 OA
BRANCH   7   9
ATOM      9  C2  UNK     1      39.993  14.221  -2.125  1.00  0.00     0.088 C 
BRANCH   9  10
ATOM     10  C1  UNK     1      40.381  15.464  -2.928  1.00  0.00     0.046 C 
BRANCH  10  11
ATOM     11  C3  UNK     1      39.935  16.731  -2.244  1.00  0.00    -0.058 A 
ATOM     12  C6  UNK     1      39.276  16.653  -1.027  1.00  0.00     0.010 A 
ATOM     13  C12 UNK     1      38.863  17.825  -0.394  1.00  0.00     0.037 A 
ATOM     14  C15 UNK     1      39.112  19.063  -0.988  1.00  0.00     0.065 A 
ATOM     15  C13 UNK     1      39.775  19.128  -2.214  1.00  0.00     0.037 A 
ATOM     16  C7  UNK     1      40.189  17.955  -2.845  1.00  0.00     0.010 A 
BRANCH  14  17
ATOM     17  O5  UNK     1      38.710  20.207  -0.370  1.00  0.00    -0.361 OA
ATOM     18  H14 UNK     1      39.379  20.462   0.287  1.00  0.00     0.217 HD
ENDBRANCH  14  17
ENDBRANCH  10  11
ENDBRANCH   9  10
ENDBRANCH   7   9
ENDBRANCH   1   7
BRANCH   2  19
ATOM     19  O2  UNK     1      41.805  10.749  -1.780  1.00  0.00    -0.360 OA
ATOM     20  H11 UNK     1      42.397   9.993  -1.638  1.00  0.00     0.217 HD
ENDBRANCH   2  19
BRANCH   3  21
ATOM     21  O3  UNK     1      40.182  14.305   1.004  1.00  0.00    -0.360 OA
ATOM     22  H12 UNK     1      39.277  14.469   0.686  1.00  0.00     0.217 HD
ENDBRANCH   3  21
BRANCH   6  23
ATOM     23  O4  UNK     1      40.422   9.856   2.690  1.00  0.00    -0.361 OA
ATOM     24  H13 UNK     1      39.554  10.025   3.096  1.00  0.00     0.217 HD
ENDBRANCH   6  23
TORSDOF 8
ENDMDL
MODEL 18
REMARK VINA RESULT:      -7.0      3.215      6.499
REMARK  8 active torsions:
REMARK  status: ('A' for Active; 'I' for Inactive)
REMARK    1  A    between atoms: O2_2  and  C8_13 
REMARK    2  A    between atoms: O3_3  and  C9_14 
REMARK    3  A    between atoms: O4_4  and  C14_19 
REMARK    4  A    between atoms: O5_5  and  C15_20 
REMARK    5  A    between atoms: C1_6  and  C2_7 
REMARK    6  A    between atoms: C1_6  and  C3_8 
REMARK    7  A    between atoms: C2_7  and  C4_9 
REMARK    8  A    between atoms: C4_9  and  C5_10 
ROOT
ATOM      1  C5  UNK     1      39.698  15.685  -2.079  1.00  0.00     0.076 A 
ATOM      2  C8  UNK     1      38.878  14.617  -2.445  1.00  0.00     0.085 A 
ATOM      3  C9  UNK     1      39.306  16.545  -1.054  1.00  0.00     0.085 A 
ATOM      4  C10 UNK     1      37.666  14.411  -1.786  1.00  0.00     0.074 A 
ATOM      5  C11 UNK     1      38.095  16.340  -0.394  1.00  0.00     0.074 A 
ATOM      6  C14 UNK     1      37.274  15.272  -0.761  1.00  0.00     0.071 A 
ENDROOT
BRANCH   1   7
ATOM      7  C4  UNK     1      40.965  15.899  -2.768  1.00  0.00     0.165 C 
ATOM      8  O1  UNK     1      41.094  16.830  -3.587  1.00  0.00    -0.292 OA
BRANCH   7   9
ATOM      9  C2  UNK     1      42.156  14.967  -2.488  1.00  0.00     0.088 C 
BRANCH   9  10
ATOM     10  C1  UNK     1      42.389  14.717  -0.996  1.00  0.00     0.046 C 
BRANCH  10  11
ATOM     11  C3  UNK     1      41.755  13.427  -0.541  1.00  0.00    -0.058 A 
ATOM     12  C6  UNK     1      41.053  13.397   0.653  1.00  0.00     0.010 A 
ATOM     13  C12 UNK     1      40.466  12.203   1.074  1.00  0.00     0.037 A 
ATOM     14  C15 UNK     1      40.590  11.053   0.295  1.00  0.00     0.065 A 
ATOM     15  C13 UNK     1      41.299  11.097  -0.906  1.00  0.00     0.037 A 
ATOM     16  C7  UNK     1      41.885  12.290  -1.326  1.00  0.00     0.010 A 
BRANCH  14  17
ATOM     17  O5  UNK     1      40.016   9.889   0.704  1.00  0.00    -0.361 OA
ATOM     18  H14 UNK     1      39.049   9.983   0.666  1.00  0.00     0.217 HD
ENDBRANCH  14  17
ENDBRANCH  10  11
ENDBRANCH   9  10
ENDBRANCH   7   9
ENDBRANCH   1   7
BRANCH   2  19
ATOM     19  O2  UNK     1      39.241  13.764  -3.444  1.00  0.00    -0.360 OA
ATOM     20  H11 UNK     1      39.883  13.112  -3.120  1.00  0.00     0.217 HD
ENDBRANCH   2  19
BRANCH   3  21
ATOM     21  O3  UNK     1      40.093  17.594  -0.680  1.00  0.00    -0.360 OA
ATOM     22  H12 UNK     1      39.856  18.375  -1.210  1.00  0.00     0.217 HD
ENDBRANCH   3  21
BRANCH   6  23
ATOM     23  O4  UNK     1      36.092  15.072  -0.118  1.00  0.00    -0.361 OA
ATOM     24  H13 UNK     1      35.594  15.908  -0.106  1.00  0.00     0.217 HD
ENDBRANCH   6  23
TORSDOF 8
ENDMDL
MODEL 19
REMARK VINA RESULT:      -6.6      2.236      3.659
REMARK  8 active torsions:
REMARK  status: ('A' for Active; 'I' for Inactive)
REMARK    1  A    between atoms: O2_2  and  C8_13 
REMARK    2  A    between atoms: O3_3  and  C9_14 
REMARK    3  A    between atoms: O4_4  and  C14_19 
REMARK    4  A    between atoms: O5_5  and  C15_20 
REMARK    5  A    between atoms: C1_6  and  C2_7 
REMARK    6  A    between atoms: C1_6  and  C3_8 
REMARK    7  A    between atoms: C2_7  and  C4_9 
REMARK    8  A    between atoms: C4_9  and  C5_10 
ROOT
ATOM      1  C5  UNK     1      40.917  12.503  -0.043  1.00  0.00     0.076 A 
ATOM      2  C8  UNK     1      40.445  12.942   1.194  1.00  0.00     0.085 A 
ATOM      3  C9  UNK     1      41.174  11.148  -0.250  1.00  0.00     0.085 A 
ATOM      4  C10 UNK     1      40.230  12.026   2.223  1.00  0.00     0.074 A 
ATOM      5  C11 UNK     1      40.959  10.232   0.778  1.00  0.00     0.074 A 
ATOM      6  C14 UNK     1      40.487  10.671   2.016  1.00  0.00     0.071 A 
ENDROOT
BRANCH   1   7
ATOM      7  C4  UNK     1      41.141  13.462  -1.119  1.00  0.00     0.165 C 
ATOM      8  O1  UNK     1      42.298  13.765  -1.469  1.00  0.00    -0.292 OA
BRANCH   7   9
ATOM      9  C2  UNK     1      39.940  14.110  -1.829  1.00  0.00     0.088 C 
BRANCH   9  10
ATOM     10  C1  UNK     1      40.344  15.177  -2.848  1.00  0.00     0.046 C 
BRANCH  10  11
ATOM     11  C3  UNK     1      40.027  16.565  -2.356  1.00  0.00    -0.058 A 
ATOM     12  C6  UNK     1      40.252  17.651  -3.188  1.00  0.00     0.010 A 
ATOM     13  C12 UNK     1      39.959  18.937  -2.733  1.00  0.00     0.037 A 
ATOM     14  C15 UNK     1      39.444  19.122  -1.449  1.00  0.00     0.065 A 
ATOM     15  C13 UNK     1      39.222  18.020  -0.622  1.00  0.00     0.037 A 
ATOM     16  C7  UNK     1      39.515  16.735  -1.078  1.00  0.00     0.010 A 
BRANCH  14  17
ATOM     17  O5  UNK     1      39.156  20.375  -1.006  1.00  0.00    -0.361 OA
ATOM     18  H14 UNK     1      39.383  21.016  -1.701  1.00  0.00     0.217 HD
ENDBRANCH  14  17
ENDBRANCH  10  11
ENDBRANCH   9  10
ENDBRANCH   7   9
ENDBRANCH   1   7
BRANCH   2  19
ATOM     19  O2  UNK     1      40.187  14.262   1.418  1.00  0.00    -0.360 OA
ATOM     20  H11 UNK     1      39.287  14.488   1.131  1.00  0.00     0.217 HD
ENDBRANCH   2  19
BRANCH   3  21
ATOM     21  O3  UNK     1      41.635  10.698  -1.452  1.00  0.00    -0.360 OA
ATOM     22  H12 UNK     1      42.429  11.205  -1.698  1.00  0.00     0.217 HD
ENDBRANCH   3  21
BRANCH   6  23
ATOM     23  O4  UNK     1      40.278   9.777   3.020  1.00  0.00    -0.361 OA
ATOM     24  H13 UNK     1      40.419   8.878   2.676  1.00  0.00     0.217 HD
ENDBRANCH   6  23
TORSDOF 8
ENDMDL
MODEL 20
REMARK VINA RESULT:      -6.6      2.737      4.559
REMARK  8 active torsions:
REMARK  status: ('A' for Active; 'I' for Inactive)
REMARK    1  A    between atoms: O2_2  and  C8_13 
REMARK    2  A    between atoms: O3_3  and  C9_14 
REMARK    3  A    between atoms: O4_4  and  C14_19 
REMARK    4  A    between atoms: O5_5  and  C15_20 
REMARK    5  A    between atoms: C1_6  and  C2_7 
REMARK    6  A    between atoms: C1_6  and  C3_8 
REMARK    7  A    between atoms: C2_7  and  C4_9 
REMARK    8  A    between atoms: C4_9  and  C5_10 
ROOT
ATOM      1  C5  UNK     1      40.327  11.789   0.897  1.00  0.00     0.076 A 
ATOM      2  C8  UNK     1      39.956  10.521   1.342  1.00  0.00     0.085 A 
ATOM      3  C9  UNK     1      40.479  12.832   1.811  1.00  0.00     0.085 A 
ATOM      4  C10 UNK     1      39.735  10.295   2.701  1.00  0.00     0.074 A 
ATOM      5  C11 UNK     1      40.259  12.607   3.169  1.00  0.00     0.074 A 
ATOM      6  C14 UNK     1      39.887  11.338   3.615  1.00  0.00     0.071 A 
ENDROOT
BRANCH   1   7
ATOM      7  C4  UNK     1      40.558  12.024  -0.524  1.00  0.00     0.165 C 
ATOM      8  O1  UNK     1      41.372  11.327  -1.159  1.00  0.00    -0.292 OA
BRANCH   7   9
ATOM      9  C2  UNK     1      39.793  13.145  -1.248  1.00  0.00     0.088 C 
BRANCH   9  10
ATOM     10  C1  UNK     1      40.686  14.007  -2.142  1.00  0.00     0.046 C 
BRANCH  10  11
ATOM     11  C3  UNK     1      40.335  15.469  -2.038  1.00  0.00    -0.058 A 
ATOM     12  C6  UNK     1      39.758  15.950  -0.872  1.00  0.00     0.010 A 
ATOM     13  C12 UNK     1      39.433  17.303  -0.776  1.00  0.00     0.037 A 
ATOM     14  C15 UNK     1      39.687  18.160  -1.848  1.00  0.00     0.065 A 
ATOM     15  C13 UNK     1      40.267  17.662  -3.016  1.00  0.00     0.037 A 
ATOM     16  C7  UNK     1      40.592  16.309  -3.111  1.00  0.00     0.010 A 
BRANCH  14  17
ATOM     17  O5  UNK     1      39.371  19.479  -1.754  1.00  0.00    -0.361 OA
ATOM     18  H14 UNK     1      38.576  19.575  -1.202  1.00  0.00     0.217 HD
ENDBRANCH  14  17
ENDBRANCH  10  11
ENDBRANCH   9  10
ENDBRANCH   7   9
ENDBRANCH   1   7
BRANCH   2  19
ATOM     19  O2  UNK     1      39.802   9.487   0.466  1.00  0.00    -0.360 OA
ATOM     20  H11 UNK     1      40.587   8.916   0.469  1.00  0.00     0.217 HD
ENDBRANCH   2  19
BRANCH   3  21
ATOM     21  O3  UNK     1      40.843  14.079   1.397  1.00  0.00    -0.360 OA
ATOM     22  H12 UNK     1      41.750  14.047   1.048  1.00  0.00     0.217 HD
ENDBRANCH   3  21
BRANCH   6  23
ATOM     23  O4  UNK     1      39.672  11.118   4.940  1.00  0.00    -0.361 OA
ATOM     24  H13 UNK     1      40.531  11.053   5.392  1.00  0.00     0.217 HD
ENDBRANCH   6  23
TORSDOF 8
ENDMDL
