MODEL 1
REMARK VINA RESULT:      -6.0      0.000      0.000
REMARK  8 active torsions:
REMARK  status: ('A' for Active; 'I' for Inactive)
REMARK    1  A    between atoms: O2_2  and  C8_13 
REMARK    2  A    between atoms: O3_3  and  C9_14 
REMARK    3  A    between atoms: O4_4  and  C14_19 
REMARK    4  A    between atoms: O5_5  and  C15_20 
REMARK    5  A    between atoms: C1_6  and  C2_7 
REMARK    6  A    between atoms: C1_6  and  C3_8 
REMARK    7  A    between atoms: C2_7  and  C4_9 
REMARK    8  A    between atoms: C4_9  and  C5_10 
ROOT
ATOM      1  C5  UNK     1      40.971  19.438  11.517  1.00  0.00     0.076 A 
ATOM      2  C8  UNK     1      42.157  18.791  11.171  1.00  0.00     0.085 A 
ATOM      3  C9  UNK     1      40.230  18.995  12.612  1.00  0.00     0.085 A 
ATOM      4  C10 UNK     1      42.601  17.701  11.919  1.00  0.00     0.074 A 
ATOM      5  C11 UNK     1      40.673  17.905  13.361  1.00  0.00     0.074 A 
ATOM      6  C14 UNK     1      41.860  17.258  13.014  1.00  0.00     0.071 A 
ENDROOT
BRANCH   1   7
ATOM      7  C4  UNK     1      40.508  20.578  10.734  1.00  0.00     0.165 C 
ATOM      8  O1  UNK     1      39.831  20.407   9.702  1.00  0.00    -0.292 OA
BRANCH   7   9
ATOM      9  C2  UNK     1      40.859  22.007  11.182  1.00  0.00     0.088 C 
BRANCH   9  10
ATOM     10  C1  UNK     1      42.261  22.446  10.755  1.00  0.00     0.046 C 
BRANCH  10  11
ATOM     11  C3  UNK     1      42.529  23.885  11.116  1.00  0.00    -0.058 A 
ATOM     12  C6  UNK     1      41.850  24.457  12.181  1.00  0.00     0.010 A 
ATOM     13  C12 UNK     1      42.097  25.789  12.516  1.00  0.00     0.037 A 
ATOM     14  C15 UNK     1      43.021  26.533  11.780  1.00  0.00     0.065 A 
ATOM     15  C13 UNK     1      43.697  25.945  10.711  1.00  0.00     0.037 A 
ATOM     16  C7  UNK     1      43.449  24.613  10.377  1.00  0.00     0.010 A 
BRANCH  14  17
ATOM     17  O5  UNK     1      43.263  27.831  12.108  1.00  0.00    -0.361 OA
ATOM     18  H14 UNK     1      44.070  28.126  11.652  1.00  0.00     0.217 HD
ENDBRANCH  14  17
ENDBRANCH  10  11
ENDBRANCH   9  10
ENDBRANCH   7   9
ENDBRANCH   1   7
BRANCH   2  19
ATOM     19  O2  UNK     1      42.898  19.207  10.105  1.00  0.00    -0.360 OA
ATOM     20  H11 UNK     1      42.571  18.807   9.283  1.00  0.00     0.217 HD
ENDBRANCH   2  19
BRANCH   3  21
ATOM     21  O3  UNK     1      39.068  19.614  12.968  1.00  0.00    -0.360 OA
ATOM     22  H12 UNK     1      39.072  20.522  12.620  1.00  0.00     0.217 HD
ENDBRANCH   3  21
BRANCH   6  23
ATOM     23  O4  UNK     1      42.292  16.194  13.744  1.00  0.00    -0.361 OA
ATOM     24  H13 UNK     1      42.607  15.502  13.137  1.00  0.00     0.217 HD
ENDBRANCH   6  23
TORSDOF 8
ENDMDL
MODEL 2
REMARK VINA RESULT:      -6.0      0.004      1.863
REMARK  8 active torsions:
REMARK  status: ('A' for Active; 'I' for Inactive)
REMARK    1  A    between atoms: O2_2  and  C8_13 
REMARK    2  A    between atoms: O3_3  and  C9_14 
REMARK    3  A    between atoms: O4_4  and  C14_19 
REMARK    4  A    between atoms: O5_5  and  C15_20 
REMARK    5  A    between atoms: C1_6  and  C2_7 
REMARK    6  A    between atoms: C1_6  and  C3_8 
REMARK    7  A    between atoms: C2_7  and  C4_9 
REMARK    8  A    between atoms: C4_9  and  C5_10 
ROOT
ATOM      1  C5  UNK     1      40.972  19.437  11.518  1.00  0.00     0.076 A 
ATOM      2  C8  UNK     1      40.229  18.994  12.612  1.00  0.00     0.085 A 
ATOM      3  C9  UNK     1      42.158  18.788  11.172  1.00  0.00     0.085 A 
ATOM      4  C10 UNK     1      40.671  17.904  13.360  1.00  0.00     0.074 A 
ATOM      5  C11 UNK     1      42.600  17.698  11.920  1.00  0.00     0.074 A 
ATOM      6  C14 UNK     1      41.856  17.255  13.015  1.00  0.00     0.071 A 
ENDROOT
BRANCH   1   7
ATOM      7  C4  UNK     1      40.509  20.578  10.736  1.00  0.00     0.165 C 
ATOM      8  O1  UNK     1      39.831  20.407   9.704  1.00  0.00    -0.292 OA
BRANCH   7   9
ATOM      9  C2  UNK     1      40.861  22.006  11.184  1.00  0.00     0.088 C 
BRANCH   9  10
ATOM     10  C1  UNK     1      42.262  22.446  10.754  1.00  0.00     0.046 C 
BRANCH  10  11
ATOM     11  C3  UNK     1      42.530  23.884  11.117  1.00  0.00    -0.058 A 
ATOM     12  C6  UNK     1      41.846  24.458  12.178  1.00  0.00     0.010 A 
ATOM     13  C12 UNK     1      42.095  25.790  12.514  1.00  0.00     0.037 A 
ATOM     14  C15 UNK     1      43.023  26.532  11.783  1.00  0.00     0.065 A 
ATOM     15  C13 UNK     1      43.704  25.942  10.717  1.00  0.00     0.037 A 
ATOM     16  C7  UNK     1      43.456  24.611  10.383  1.00  0.00     0.010 A 
BRANCH  14  17
ATOM     17  O5  UNK     1      43.266  27.829  12.111  1.00  0.00    -0.361 OA
ATOM     18  H14 UNK     1      44.074  28.124  11.658  1.00  0.00     0.217 HD
ENDBRANCH  14  17
ENDBRANCH  10  11
ENDBRANCH   9  10
ENDBRANCH   7   9
ENDBRANCH   1   7
BRANCH   2  19
ATOM     19  O2  UNK     1      39.067  19.613  12.967  1.00  0.00    -0.360 OA
ATOM     20  H11 UNK     1      39.224  20.552  13.159  1.00  0.00     0.217 HD
ENDBRANCH   2  19
BRANCH   3  21
ATOM     21  O3  UNK     1      42.899  19.205  10.106  1.00  0.00    -0.360 OA
ATOM     22  H12 UNK     1      43.405  19.995  10.360  1.00  0.00     0.217 HD
ENDBRANCH   3  21
BRANCH   6  23
ATOM     23  O4  UNK     1      42.288  16.191  13.745  1.00  0.00    -0.361 OA
ATOM     24  H13 UNK     1      42.148  16.380  14.689  1.00  0.00     0.217 HD
ENDBRANCH   6  23
TORSDOF 8
ENDMDL
MODEL 3
REMARK VINA RESULT:      -5.8      4.276      7.176
REMARK  8 active torsions:
REMARK  status: ('A' for Active; 'I' for Inactive)
REMARK    1  A    between atoms: O2_2  and  C8_13 
REMARK    2  A    between atoms: O3_3  and  C9_14 
REMARK    3  A    between atoms: O4_4  and  C14_19 
REMARK    4  A    between atoms: O5_5  and  C15_20 
REMARK    5  A    between atoms: C1_6  and  C2_7 
REMARK    6  A    between atoms: C1_6  and  C3_8 
REMARK    7  A    between atoms: C2_7  and  C4_9 
REMARK    8  A    between atoms: C4_9  and  C5_10 
ROOT
ATOM      1  C5  UNK     1      41.590  25.431  12.616  1.00  0.00     0.076 A 
ATOM      2  C8  UNK     1      41.998  24.284  11.936  1.00  0.00     0.085 A 
ATOM      3  C9  UNK     1      42.099  26.677  12.248  1.00  0.00     0.085 A 
ATOM      4  C10 UNK     1      42.915  24.381  10.890  1.00  0.00     0.074 A 
ATOM      5  C11 UNK     1      43.016  26.775  11.202  1.00  0.00     0.074 A 
ATOM      6  C14 UNK     1      43.424  25.626  10.523  1.00  0.00     0.071 A 
ENDROOT
BRANCH   1   7
ATOM      7  C4  UNK     1      40.630  25.328  13.709  1.00  0.00     0.165 C 
ATOM      8  O1  UNK     1      40.990  24.931  14.834  1.00  0.00    -0.292 OA
BRANCH   7   9
ATOM      9  C2  UNK     1      39.159  25.711  13.474  1.00  0.00     0.088 C 
BRANCH   9  10
ATOM     10  C1  UNK     1      38.343  24.595  12.817  1.00  0.00     0.046 C 
BRANCH  10  11
ATOM     11  C3  UNK     1      37.365  25.141  11.809  1.00  0.00    -0.058 A 
ATOM     12  C6  UNK     1      37.402  26.488  11.483  1.00  0.00     0.010 A 
ATOM     13  C12 UNK     1      36.497  26.993  10.548  1.00  0.00     0.037 A 
ATOM     14  C15 UNK     1      35.564  26.144   9.952  1.00  0.00     0.065 A 
ATOM     15  C13 UNK     1      35.537  24.790  10.289  1.00  0.00     0.037 A 
ATOM     16  C7  UNK     1      36.442  24.286  11.223  1.00  0.00     0.010 A 
BRANCH  14  17
ATOM     17  O5  UNK     1      34.682  26.635   9.040  1.00  0.00    -0.361 OA
ATOM     18  H14 UNK     1      35.178  27.036   8.306  1.00  0.00     0.217 HD
ENDBRANCH  14  17
ENDBRANCH  10  11
ENDBRANCH   9  10
ENDBRANCH   7   9
ENDBRANCH   1   7
BRANCH   2  19
ATOM     19  O2  UNK     1      41.512  23.056  12.278  1.00  0.00    -0.360 OA
ATOM     20  H11 UNK     1      40.544  23.077  12.344  1.00  0.00     0.217 HD
ENDBRANCH   2  19
BRANCH   3  21
ATOM     21  O3  UNK     1      41.713  27.811  12.899  1.00  0.00    -0.360 OA
ATOM     22  H12 UNK     1      41.126  28.326  12.319  1.00  0.00     0.217 HD
ENDBRANCH   3  21
BRANCH   6  23
ATOM     23  O4  UNK     1      44.320  25.722   9.502  1.00  0.00    -0.361 OA
ATOM     24  H13 UNK     1      43.836  25.744   8.659  1.00  0.00     0.217 HD
ENDBRANCH   6  23
TORSDOF 8
ENDMDL
MODEL 4
REMARK VINA RESULT:      -5.8      4.281      7.198
REMARK  8 active torsions:
REMARK  status: ('A' for Active; 'I' for Inactive)
REMARK    1  A    between atoms: O2_2  and  C8_13 
REMARK    2  A    between atoms: O3_3  and  C9_14 
REMARK    3  A    between atoms: O4_4  and  C14_19 
REMARK    4  A    between atoms: O5_5  and  C15_20 
REMARK    5  A    between atoms: C1_6  and  C2_7 
REMARK    6  A    between atoms: C1_6  and  C3_8 
REMARK    7  A    between atoms: C2_7  and  C4_9 
REMARK    8  A    between atoms: C4_9  and  C5_10 
ROOT
ATOM      1  C5  UNK     1      41.599  25.431  12.627  1.00  0.00     0.076 A 
ATOM      2  C8  UNK     1      42.092  26.681  12.253  1.00  0.00     0.085 A 
ATOM      3  C9  UNK     1      42.031  24.284  11.961  1.00  0.00     0.085 A 
ATOM      4  C10 UNK     1      43.015  26.784  11.213  1.00  0.00     0.074 A 
ATOM      5  C11 UNK     1      42.954  24.386  10.921  1.00  0.00     0.074 A 
ATOM      6  C14 UNK     1      43.447  25.637  10.547  1.00  0.00     0.071 A 
ENDROOT
BRANCH   1   7
ATOM      7  C4  UNK     1      40.633  25.323  13.715  1.00  0.00     0.165 C 
ATOM      8  O1  UNK     1      40.993  24.950  14.848  1.00  0.00    -0.292 OA
BRANCH   7   9
ATOM      9  C2  UNK     1      39.156  25.671  13.463  1.00  0.00     0.088 C 
BRANCH   9  10
ATOM     10  C1  UNK     1      38.383  24.553  12.763  1.00  0.00     0.046 C 
BRANCH  10  11
ATOM     11  C3  UNK     1      37.369  25.100  11.792  1.00  0.00    -0.058 A 
ATOM     12  C6  UNK     1      36.426  24.248  11.238  1.00  0.00     0.010 A 
ATOM     13  C12 UNK     1      35.487  24.754  10.339  1.00  0.00     0.037 A 
ATOM     14  C15 UNK     1      35.503  26.109  10.003  1.00  0.00     0.065 A 
ATOM     15  C13 UNK     1      36.458  26.956  10.567  1.00  0.00     0.037 A 
ATOM     16  C7  UNK     1      37.396  26.449  11.467  1.00  0.00     0.010 A 
BRANCH  14  17
ATOM     17  O5  UNK     1      34.587  26.603   9.128  1.00  0.00    -0.361 OA
ATOM     18  H14 UNK     1      34.931  26.508   8.223  1.00  0.00     0.217 HD
ENDBRANCH  14  17
ENDBRANCH  10  11
ENDBRANCH   9  10
ENDBRANCH   7   9
ENDBRANCH   1   7
BRANCH   2  19
ATOM     19  O2  UNK     1      41.684  27.815  12.891  1.00  0.00    -0.360 OA
ATOM     20  H11 UNK     1      40.874  28.163  12.485  1.00  0.00     0.217 HD
ENDBRANCH   2  19
BRANCH   3  21
ATOM     21  O3  UNK     1      41.562  23.052  12.311  1.00  0.00    -0.360 OA
ATOM     22  H12 UNK     1      41.831  22.858  13.225  1.00  0.00     0.217 HD
ENDBRANCH   3  21
BRANCH   6  23
ATOM     23  O4  UNK     1      44.348  25.738   9.532  1.00  0.00    -0.361 OA
ATOM     24  H13 UNK     1      44.722  26.635   9.531  1.00  0.00     0.217 HD
ENDBRANCH   6  23
TORSDOF 8
ENDMDL
MODEL 5
REMARK VINA RESULT:      -5.8      3.853      4.932
REMARK  8 active torsions:
REMARK  status: ('A' for Active; 'I' for Inactive)
REMARK    1  A    between atoms: O2_2  and  C8_13 
REMARK    2  A    between atoms: O3_3  and  C9_14 
REMARK    3  A    between atoms: O4_4  and  C14_19 
REMARK    4  A    between atoms: O5_5  and  C15_20 
REMARK    5  A    between atoms: C1_6  and  C2_7 
REMARK    6  A    between atoms: C1_6  and  C3_8 
REMARK    7  A    between atoms: C2_7  and  C4_9 
REMARK    8  A    between atoms: C4_9  and  C5_10 
ROOT
ATOM      1  C5  UNK     1      39.712  20.116  11.709  1.00  0.00     0.076 A 
ATOM      2  C8  UNK     1      39.825  19.240  12.789  1.00  0.00     0.085 A 
ATOM      3  C9  UNK     1      40.691  20.126  10.715  1.00  0.00     0.085 A 
ATOM      4  C10 UNK     1      40.916  18.376  12.875  1.00  0.00     0.074 A 
ATOM      5  C11 UNK     1      41.782  19.262  10.801  1.00  0.00     0.074 A 
ATOM      6  C14 UNK     1      41.894  18.386  11.882  1.00  0.00     0.071 A 
ENDROOT
BRANCH   1   7
ATOM      7  C4  UNK     1      38.570  21.019  11.619  1.00  0.00     0.165 C 
ATOM      8  O1  UNK     1      37.425  20.576  11.410  1.00  0.00    -0.292 OA
BRANCH   7   9
ATOM      9  C2  UNK     1      38.780  22.534  11.781  1.00  0.00     0.088 C 
BRANCH   9  10
ATOM     10  C1  UNK     1      37.626  23.229  12.508  1.00  0.00     0.046 C 
BRANCH  10  11
ATOM     11  C3  UNK     1      36.892  24.185  11.602  1.00  0.00    -0.058 A 
ATOM     12  C6  UNK     1      37.169  25.541  11.675  1.00  0.00     0.010 A 
ATOM     13  C12 UNK     1      36.490  26.426  10.836  1.00  0.00     0.037 A 
ATOM     14  C15 UNK     1      35.540  25.942   9.934  1.00  0.00     0.065 A 
ATOM     15  C13 UNK     1      35.271  24.575   9.872  1.00  0.00     0.037 A 
ATOM     16  C7  UNK     1      35.951  23.691  10.710  1.00  0.00     0.010 A 
BRANCH  14  17
ATOM     17  O5  UNK     1      34.879  26.804   9.116  1.00  0.00    -0.361 OA
ATOM     18  H14 UNK     1      35.039  27.714   9.420  1.00  0.00     0.217 HD
ENDBRANCH  14  17
ENDBRANCH  10  11
ENDBRANCH   9  10
ENDBRANCH   7   9
ENDBRANCH   1   7
BRANCH   2  19
ATOM     19  O2  UNK     1      38.879  19.213  13.771  1.00  0.00    -0.360 OA
ATOM     20  H11 UNK     1      38.005  19.017  13.399  1.00  0.00     0.217 HD
ENDBRANCH   2  19
BRANCH   3  21
ATOM     21  O3  UNK     1      40.600  20.974   9.651  1.00  0.00    -0.360 OA
ATOM     22  H12 UNK     1      41.491  21.281   9.411  1.00  0.00     0.217 HD
ENDBRANCH   3  21
BRANCH   6  23
ATOM     23  O4  UNK     1      42.959  17.544  11.966  1.00  0.00    -0.361 OA
ATOM     24  H13 UNK     1      43.287  17.540  12.882  1.00  0.00     0.217 HD
ENDBRANCH   6  23
TORSDOF 8
ENDMDL
MODEL 6
REMARK VINA RESULT:      -5.8      3.854      4.646
REMARK  8 active torsions:
REMARK  status: ('A' for Active; 'I' for Inactive)
REMARK    1  A    between atoms: O2_2  and  C8_13 
REMARK    2  A    between atoms: O3_3  and  C9_14 
REMARK    3  A    between atoms: O4_4  and  C14_19 
REMARK    4  A    between atoms: O5_5  and  C15_20 
REMARK    5  A    between atoms: C1_6  and  C2_7 
REMARK    6  A    between atoms: C1_6  and  C3_8 
REMARK    7  A    between atoms: C2_7  and  C4_9 
REMARK    8  A    between atoms: C4_9  and  C5_10 
ROOT
ATOM      1  C5  UNK     1      39.716  20.122  11.711  1.00  0.00     0.076 A 
ATOM      2  C8  UNK     1      40.690  20.134  10.713  1.00  0.00     0.085 A 
ATOM      3  C9  UNK     1      39.836  19.248  12.792  1.00  0.00     0.085 A 
ATOM      4  C10 UNK     1      41.784  19.273  10.794  1.00  0.00     0.074 A 
ATOM      5  C11 UNK     1      40.930  18.386  12.874  1.00  0.00     0.074 A 
ATOM      6  C14 UNK     1      41.904  18.399  11.875  1.00  0.00     0.071 A 
ENDROOT
BRANCH   1   7
ATOM      7  C4  UNK     1      38.573  21.023  11.625  1.00  0.00     0.165 C 
ATOM      8  O1  UNK     1      37.427  20.578  11.419  1.00  0.00    -0.292 OA
BRANCH   7   9
ATOM      9  C2  UNK     1      38.780  22.538  11.787  1.00  0.00     0.088 C 
BRANCH   9  10
ATOM     10  C1  UNK     1      37.624  23.232  12.512  1.00  0.00     0.046 C 
BRANCH  10  11
ATOM     11  C3  UNK     1      36.890  24.186  11.604  1.00  0.00    -0.058 A 
ATOM     12  C6  UNK     1      35.951  23.691  10.712  1.00  0.00     0.010 A 
ATOM     13  C12 UNK     1      35.271  24.574   9.872  1.00  0.00     0.037 A 
ATOM     14  C15 UNK     1      35.540  25.942   9.933  1.00  0.00     0.065 A 
ATOM     15  C13 UNK     1      36.488  26.426  10.835  1.00  0.00     0.037 A 
ATOM     16  C7  UNK     1      37.167  25.543  11.675  1.00  0.00     0.010 A 
BRANCH  14  17
ATOM     17  O5  UNK     1      34.876  26.802   9.116  1.00  0.00    -0.361 OA
ATOM     18  H14 UNK     1      35.003  27.709   9.442  1.00  0.00     0.217 HD
ENDBRANCH  14  17
ENDBRANCH  10  11
ENDBRANCH   9  10
ENDBRANCH   7   9
ENDBRANCH   1   7
BRANCH   2  19
ATOM     19  O2  UNK     1      40.592  20.980   9.648  1.00  0.00    -0.360 OA
ATOM     20  H11 UNK     1      39.664  21.199   9.469  1.00  0.00     0.217 HD
ENDBRANCH   2  19
BRANCH   3  21
ATOM     21  O3  UNK     1      38.896  19.220  13.779  1.00  0.00    -0.360 OA
ATOM     22  H12 UNK     1      38.038  18.970  13.394  1.00  0.00     0.217 HD
ENDBRANCH   3  21
BRANCH   6  23
ATOM     23  O4  UNK     1      42.971  17.558  11.955  1.00  0.00    -0.361 OA
ATOM     24  H13 UNK     1      43.640  17.835  11.306  1.00  0.00     0.217 HD
ENDBRANCH   6  23
TORSDOF 8
ENDMDL
MODEL 7
REMARK VINA RESULT:      -5.7      4.035      6.569
REMARK  8 active torsions:
REMARK  status: ('A' for Active; 'I' for Inactive)
REMARK    1  A    between atoms: O2_2  and  C8_13 
REMARK    2  A    between atoms: O3_3  and  C9_14 
REMARK    3  A    between atoms: O4_4  and  C14_19 
REMARK    4  A    between atoms: O5_5  and  C15_20 
REMARK    5  A    between atoms: C1_6  and  C2_7 
REMARK    6  A    between atoms: C1_6  and  C3_8 
REMARK    7  A    between atoms: C2_7  and  C4_9 
REMARK    8  A    between atoms: C4_9  and  C5_10 
ROOT
ATOM      1  C5  UNK     1      41.377  23.966  12.002  1.00  0.00     0.076 A 
ATOM      2  C8  UNK     1      42.136  23.319  11.028  1.00  0.00     0.085 A 
ATOM      3  C9  UNK     1      41.623  25.306  12.302  1.00  0.00     0.085 A 
ATOM      4  C10 UNK     1      43.142  24.011  10.353  1.00  0.00     0.074 A 
ATOM      5  C11 UNK     1      42.627  25.999  11.628  1.00  0.00     0.074 A 
ATOM      6  C14 UNK     1      43.388  25.351  10.653  1.00  0.00     0.071 A 
ENDROOT
BRANCH   1   7
ATOM      7  C4  UNK     1      40.325  23.241  12.706  1.00  0.00     0.165 C 
ATOM      8  O1  UNK     1      40.507  22.828  13.868  1.00  0.00    -0.292 OA
BRANCH   7   9
ATOM      9  C2  UNK     1      38.978  22.980  12.010  1.00  0.00     0.088 C 
BRANCH   9  10
ATOM     10  C1  UNK     1      37.801  23.681  12.690  1.00  0.00     0.046 C 
BRANCH  10  11
ATOM     11  C3  UNK     1      36.994  24.493  11.710  1.00  0.00    -0.058 A 
ATOM     12  C6  UNK     1      36.048  23.862  10.917  1.00  0.00     0.010 A 
ATOM     13  C12 UNK     1      35.301  24.613  10.009  1.00  0.00     0.037 A 
ATOM     14  C15 UNK     1      35.511  25.989   9.904  1.00  0.00     0.065 A 
ATOM     15  C13 UNK     1      36.466  26.612  10.707  1.00  0.00     0.037 A 
ATOM     16  C7  UNK     1      37.212  25.860  11.615  1.00  0.00     0.010 A 
BRANCH  14  17
ATOM     17  O5  UNK     1      34.781  26.722   9.020  1.00  0.00    -0.361 OA
ATOM     18  H14 UNK     1      35.344  26.953   8.262  1.00  0.00     0.217 HD
ENDBRANCH  14  17
ENDBRANCH  10  11
ENDBRANCH   9  10
ENDBRANCH   7   9
ENDBRANCH   1   7
BRANCH   2  19
ATOM     19  O2  UNK     1      41.913  22.010  10.719  1.00  0.00    -0.360 OA
ATOM     20  H11 UNK     1      41.545  21.536  11.482  1.00  0.00     0.217 HD
ENDBRANCH   2  19
BRANCH   3  21
ATOM     21  O3  UNK     1      40.891  25.958  13.250  1.00  0.00    -0.360 OA
ATOM     22  H12 UNK     1      40.170  25.377  13.550  1.00  0.00     0.217 HD
ENDBRANCH   3  21
BRANCH   6  23
ATOM     23  O4  UNK     1      44.369  26.027   9.996  1.00  0.00    -0.361 OA
ATOM     24  H13 UNK     1      44.245  25.911   9.038  1.00  0.00     0.217 HD
ENDBRANCH   6  23
TORSDOF 8
ENDMDL
MODEL 8
REMARK VINA RESULT:      -5.7      3.980      6.863
REMARK  8 active torsions:
REMARK  status: ('A' for Active; 'I' for Inactive)
REMARK    1  A    between atoms: O2_2  and  C8_13 
REMARK    2  A    between atoms: O3_3  and  C9_14 
REMARK    3  A    between atoms: O4_4  and  C14_19 
REMARK    4  A    between atoms: O5_5  and  C15_20 
REMARK    5  A    between atoms: C1_6  and  C2_7 
REMARK    6  A    between atoms: C1_6  and  C3_8 
REMARK    7  A    between atoms: C2_7  and  C4_9 
REMARK    8  A    between atoms: C4_9  and  C5_10 
ROOT
ATOM      1  C5  UNK     1      41.959  25.563  12.154  1.00  0.00     0.076 A 
ATOM      2  C8  UNK     1      43.037  26.161  11.501  1.00  0.00     0.085 A 
ATOM      3  C9  UNK     1      41.780  24.182  12.082  1.00  0.00     0.085 A 
ATOM      4  C10 UNK     1      43.936  25.378  10.777  1.00  0.00     0.074 A 
ATOM      5  C11 UNK     1      42.678  23.398  11.359  1.00  0.00     0.074 A 
ATOM      6  C14 UNK     1      43.757  23.996  10.706  1.00  0.00     0.071 A 
ENDROOT
BRANCH   1   7
ATOM      7  C4  UNK     1      41.020  26.383  12.911  1.00  0.00     0.165 C 
ATOM      8  O1  UNK     1      41.088  26.442  14.154  1.00  0.00    -0.292 OA
BRANCH   7   9
ATOM      9  C2  UNK     1      39.932  27.181  12.172  1.00  0.00     0.088 C 
BRANCH   9  10
ATOM     10  C1  UNK     1      38.560  27.097  12.843  1.00  0.00     0.046 C 
BRANCH  10  11
ATOM     11  C3  UNK     1      37.597  26.261  12.039  1.00  0.00    -0.058 A 
ATOM     12  C6  UNK     1      37.575  24.886  12.217  1.00  0.00     0.010 A 
ATOM     13  C12 UNK     1      36.684  24.112  11.474  1.00  0.00     0.037 A 
ATOM     14  C15 UNK     1      35.825  24.723  10.559  1.00  0.00     0.065 A 
ATOM     15  C13 UNK     1      35.858  26.107  10.389  1.00  0.00     0.037 A 
ATOM     16  C7  UNK     1      36.749  26.880  11.133  1.00  0.00     0.010 A 
BRANCH  14  17
ATOM     17  O5  UNK     1      34.955  23.969   9.835  1.00  0.00    -0.361 OA
ATOM     18  H14 UNK     1      35.332  23.081   9.714  1.00  0.00     0.217 HD
ENDBRANCH  14  17
ENDBRANCH  10  11
ENDBRANCH   9  10
ENDBRANCH   7   9
ENDBRANCH   1   7
BRANCH   2  19
ATOM     19  O2  UNK     1      43.231  27.509  11.558  1.00  0.00    -0.360 OA
ATOM     20  H11 UNK     1      42.441  27.982  11.253  1.00  0.00     0.217 HD
ENDBRANCH   2  19
BRANCH   3  21
ATOM     21  O3  UNK     1      40.733  23.577  12.713  1.00  0.00    -0.360 OA
ATOM     22  H12 UNK     1      40.495  22.767  12.230  1.00  0.00     0.217 HD
ENDBRANCH   3  21
BRANCH   6  23
ATOM     23  O4  UNK     1      44.633  23.232   9.999  1.00  0.00    -0.361 OA
ATOM     24  H13 UNK     1      44.465  22.295  10.199  1.00  0.00     0.217 HD
ENDBRANCH   6  23
TORSDOF 8
ENDMDL
MODEL 9
REMARK VINA RESULT:      -5.7      3.981      6.987
REMARK  8 active torsions:
REMARK  status: ('A' for Active; 'I' for Inactive)
REMARK    1  A    between atoms: O2_2  and  C8_13 
REMARK    2  A    between atoms: O3_3  and  C9_14 
REMARK    3  A    between atoms: O4_4  and  C14_19 
REMARK    4  A    between atoms: O5_5  and  C15_20 
REMARK    5  A    between atoms: C1_6  and  C2_7 
REMARK    6  A    between atoms: C1_6  and  C3_8 
REMARK    7  A    between atoms: C2_7  and  C4_9 
REMARK    8  A    between atoms: C4_9  and  C5_10 
ROOT
ATOM      1  C5  UNK     1      41.961  25.565  12.155  1.00  0.00     0.076 A 
ATOM      2  C8  UNK     1      41.780  24.183  12.082  1.00  0.00     0.085 A 
ATOM      3  C9  UNK     1      43.039  26.161  11.502  1.00  0.00     0.085 A 
ATOM      4  C10 UNK     1      42.677  23.399  11.358  1.00  0.00     0.074 A 
ATOM      5  C11 UNK     1      43.936  25.378  10.777  1.00  0.00     0.074 A 
ATOM      6  C14 UNK     1      43.755  23.996  10.705  1.00  0.00     0.071 A 
ENDROOT
BRANCH   1   7
ATOM      7  C4  UNK     1      41.021  26.384  12.912  1.00  0.00     0.165 C 
ATOM      8  O1  UNK     1      41.090  26.444  14.155  1.00  0.00    -0.292 OA
BRANCH   7   9
ATOM      9  C2  UNK     1      39.933  27.180  12.173  1.00  0.00     0.088 C 
BRANCH   9  10
ATOM     10  C1  UNK     1      38.561  27.095  12.845  1.00  0.00     0.046 C 
BRANCH  10  11
ATOM     11  C3  UNK     1      37.597  26.261  12.041  1.00  0.00    -0.058 A 
ATOM     12  C6  UNK     1      37.572  24.886  12.220  1.00  0.00     0.010 A 
ATOM     13  C12 UNK     1      36.680  24.113  11.476  1.00  0.00     0.037 A 
ATOM     14  C15 UNK     1      35.824  24.726  10.560  1.00  0.00     0.065 A 
ATOM     15  C13 UNK     1      35.860  26.110  10.389  1.00  0.00     0.037 A 
ATOM     16  C7  UNK     1      36.751  26.881  11.133  1.00  0.00     0.010 A 
BRANCH  14  17
ATOM     17  O5  UNK     1      34.953  23.972   9.835  1.00  0.00    -0.361 OA
ATOM     18  H14 UNK     1      34.486  24.548   9.206  1.00  0.00     0.217 HD
ENDBRANCH  14  17
ENDBRANCH  10  11
ENDBRANCH   9  10
ENDBRANCH   7   9
ENDBRANCH   1   7
BRANCH   2  19
ATOM     19  O2  UNK     1      40.732  23.580  12.712  1.00  0.00    -0.360 OA
ATOM     20  H11 UNK     1      39.946  23.575  12.143  1.00  0.00     0.217 HD
ENDBRANCH   2  19
BRANCH   3  21
ATOM     21  O3  UNK     1      43.234  27.510  11.559  1.00  0.00    -0.360 OA
ATOM     22  H12 UNK     1      42.661  27.885  12.249  1.00  0.00     0.217 HD
ENDBRANCH   3  21
BRANCH   6  23
ATOM     23  O4  UNK     1      44.632  23.231   9.998  1.00  0.00    -0.361 OA
ATOM     24  H13 UNK     1      45.533  23.565  10.148  1.00  0.00     0.217 HD
ENDBRANCH   6  23
TORSDOF 8
ENDMDL
MODEL 10
REMARK VINA RESULT:      -5.7      2.078      4.038
REMARK  8 active torsions:
REMARK  status: ('A' for Active; 'I' for Inactive)
REMARK    1  A    between atoms: O2_2  and  C8_13 
REMARK    2  A    between atoms: O3_3  and  C9_14 
REMARK    3  A    between atoms: O4_4  and  C14_19 
REMARK    4  A    between atoms: O5_5  and  C15_20 
REMARK    5  A    between atoms: C1_6  and  C2_7 
REMARK    6  A    between atoms: C1_6  and  C3_8 
REMARK    7  A    between atoms: C2_7  and  C4_9 
REMARK    8  A    between atoms: C4_9  and  C5_10 
ROOT
ATOM      1  C5  UNK     1      39.519  21.297  11.494  1.00  0.00     0.076 A 
ATOM      2  C8  UNK     1      38.986  21.241  10.206  1.00  0.00     0.085 A 
ATOM      3  C9  UNK     1      38.894  22.068  12.474  1.00  0.00     0.085 A 
ATOM      4  C10 UNK     1      37.829  21.956   9.898  1.00  0.00     0.074 A 
ATOM      5  C11 UNK     1      37.736  22.782  12.167  1.00  0.00     0.074 A 
ATOM      6  C14 UNK     1      37.203  22.726  10.878  1.00  0.00     0.071 A 
ENDROOT
BRANCH   1   7
ATOM      7  C4  UNK     1      40.730  20.550  11.814  1.00  0.00     0.165 C 
ATOM      8  O1  UNK     1      40.692  19.313  11.962  1.00  0.00    -0.292 OA
BRANCH   7   9
ATOM      9  C2  UNK     1      42.067  21.292  11.975  1.00  0.00     0.088 C 
BRANCH   9  10
ATOM     10  C1  UNK     1      42.504  22.031  10.709  1.00  0.00     0.046 C 
BRANCH  10  11
ATOM     11  C3  UNK     1      42.694  23.505  10.962  1.00  0.00    -0.058 A 
ATOM     12  C6  UNK     1      43.551  24.231  10.150  1.00  0.00     0.010 A 
ATOM     13  C12 UNK     1      43.727  25.595  10.384  1.00  0.00     0.037 A 
ATOM     14  C15 UNK     1      43.042  26.217  11.429  1.00  0.00     0.065 A 
ATOM     15  C13 UNK     1      42.182  25.475  12.239  1.00  0.00     0.037 A 
ATOM     16  C7  UNK     1      42.007  24.111  12.004  1.00  0.00     0.010 A 
BRANCH  14  17
ATOM     17  O5  UNK     1      43.212  27.548  11.656  1.00  0.00    -0.361 OA
ATOM     18  H14 UNK     1      43.113  28.027  10.816  1.00  0.00     0.217 HD
ENDBRANCH  14  17
ENDBRANCH  10  11
ENDBRANCH   9  10
ENDBRANCH   7   9
ENDBRANCH   1   7
BRANCH   2  19
ATOM     19  O2  UNK     1      39.581  20.495   9.233  1.00  0.00    -0.360 OA
ATOM     20  H11 UNK     1      40.440  20.874   8.987  1.00  0.00     0.217 HD
ENDBRANCH   2  19
BRANCH   3  21
ATOM     21  O3  UNK     1      39.398  22.136  13.739  1.00  0.00    -0.360 OA
ATOM     22  H12 UNK     1      39.128  21.341  14.232  1.00  0.00     0.217 HD
ENDBRANCH   3  21
BRANCH   6  23
ATOM     23  O4  UNK     1      36.074  23.424  10.579  1.00  0.00    -0.361 OA
ATOM     24  H13 UNK     1      35.458  23.364  11.329  1.00  0.00     0.217 HD
ENDBRANCH   6  23
TORSDOF 8
ENDMDL
MODEL 11
REMARK VINA RESULT:      -5.7      2.074      4.285
REMARK  8 active torsions:
REMARK  status: ('A' for Active; 'I' for Inactive)
REMARK    1  A    between atoms: O2_2  and  C8_13 
REMARK    2  A    between atoms: O3_3  and  C9_14 
REMARK    3  A    between atoms: O4_4  and  C14_19 
REMARK    4  A    between atoms: O5_5  and  C15_20 
REMARK    5  A    between atoms: C1_6  and  C2_7 
REMARK    6  A    between atoms: C1_6  and  C3_8 
REMARK    7  A    between atoms: C2_7  and  C4_9 
REMARK    8  A    between atoms: C4_9  and  C5_10 
ROOT
ATOM      1  C5  UNK     1      39.534  21.292  11.499  1.00  0.00     0.076 A 
ATOM      2  C8  UNK     1      38.913  22.060  12.483  1.00  0.00     0.085 A 
ATOM      3  C9  UNK     1      38.992  21.233  10.215  1.00  0.00     0.085 A 
ATOM      4  C10 UNK     1      37.750  22.768  12.185  1.00  0.00     0.074 A 
ATOM      5  C11 UNK     1      37.828  21.942   9.916  1.00  0.00     0.074 A 
ATOM      6  C14 UNK     1      37.207  22.710  10.902  1.00  0.00     0.071 A 
ENDROOT
BRANCH   1   7
ATOM      7  C4  UNK     1      40.751  20.551  11.812  1.00  0.00     0.165 C 
ATOM      8  O1  UNK     1      40.724  19.313  11.950  1.00  0.00    -0.292 OA
BRANCH   7   9
ATOM      9  C2  UNK     1      42.083  21.303  11.975  1.00  0.00     0.088 C 
BRANCH   9  10
ATOM     10  C1  UNK     1      42.518  22.044  10.709  1.00  0.00     0.046 C 
BRANCH  10  11
ATOM     11  C3  UNK     1      42.700  23.519  10.962  1.00  0.00    -0.058 A 
ATOM     12  C6  UNK     1      43.548  24.251  10.144  1.00  0.00     0.010 A 
ATOM     13  C12 UNK     1      43.716  25.616  10.378  1.00  0.00     0.037 A 
ATOM     14  C15 UNK     1      43.035  26.233  11.428  1.00  0.00     0.065 A 
ATOM     15  C13 UNK     1      42.186  25.485  12.244  1.00  0.00     0.037 A 
ATOM     16  C7  UNK     1      42.017  24.120  12.009  1.00  0.00     0.010 A 
BRANCH  14  17
ATOM     17  O5  UNK     1      43.198  27.565  11.655  1.00  0.00    -0.361 OA
ATOM     18  H14 UNK     1      42.335  28.006  11.580  1.00  0.00     0.217 HD
ENDBRANCH  14  17
ENDBRANCH  10  11
ENDBRANCH   9  10
ENDBRANCH   7   9
ENDBRANCH   1   7
BRANCH   2  19
ATOM     19  O2  UNK     1      39.426  22.131  13.744  1.00  0.00    -0.360 OA
ATOM     20  H11 UNK     1      39.595  23.054  13.994  1.00  0.00     0.217 HD
ENDBRANCH   2  19
BRANCH   3  21
ATOM     21  O3  UNK     1      39.583  20.489   9.237  1.00  0.00    -0.360 OA
ATOM     22  H12 UNK     1      39.158  19.615   9.202  1.00  0.00     0.217 HD
ENDBRANCH   3  21
BRANCH   6  23
ATOM     23  O4  UNK     1      36.071  23.400  10.610  1.00  0.00    -0.361 OA
ATOM     24  H13 UNK     1      35.320  22.976  11.060  1.00  0.00     0.217 HD
ENDBRANCH   6  23
TORSDOF 8
ENDMDL
MODEL 12
REMARK VINA RESULT:      -5.7      4.113      6.949
REMARK  8 active torsions:
REMARK  status: ('A' for Active; 'I' for Inactive)
REMARK    1  A    between atoms: O2_2  and  C8_13 
REMARK    2  A    between atoms: O3_3  and  C9_14 
REMARK    3  A    between atoms: O4_4  and  C14_19 
REMARK    4  A    between atoms: O5_5  and  C15_20 
REMARK    5  A    between atoms: C1_6  and  C2_7 
REMARK    6  A    between atoms: C1_6  and  C3_8 
REMARK    7  A    between atoms: C2_7  and  C4_9 
REMARK    8  A    between atoms: C4_9  and  C5_10 
ROOT
ATOM      1  C5  UNK     1      41.462  24.636  12.368  1.00  0.00     0.076 A 
ATOM      2  C8  UNK     1      41.982  25.930  12.396  1.00  0.00     0.085 A 
ATOM      3  C9  UNK     1      41.935  23.716  11.432  1.00  0.00     0.085 A 
ATOM      4  C10 UNK     1      42.974  26.304  11.489  1.00  0.00     0.074 A 
ATOM      5  C11 UNK     1      42.926  24.088  10.526  1.00  0.00     0.074 A 
ATOM      6  C14 UNK     1      43.446  25.383  10.554  1.00  0.00     0.071 A 
ENDROOT
BRANCH   1   7
ATOM      7  C4  UNK     1      40.426  24.247  13.317  1.00  0.00     0.165 C 
ATOM      8  O1  UNK     1      40.677  23.447  14.239  1.00  0.00    -0.292 OA
BRANCH   7   9
ATOM      9  C2  UNK     1      39.007  24.824  13.179  1.00  0.00     0.088 C 
BRANCH   9  10
ATOM     10  C1  UNK     1      38.035  23.876  12.472  1.00  0.00     0.046 C 
BRANCH  10  11
ATOM     11  C3  UNK     1      37.088  24.623  11.567  1.00  0.00    -0.058 A 
ATOM     12  C6  UNK     1      37.166  26.005  11.490  1.00  0.00     0.010 A 
ATOM     13  C12 UNK     1      36.290  26.695  10.652  1.00  0.00     0.037 A 
ATOM     14  C15 UNK     1      35.345  25.995   9.902  1.00  0.00     0.065 A 
ATOM     15  C13 UNK     1      35.277  24.604   9.989  1.00  0.00     0.037 A 
ATOM     16  C7  UNK     1      36.153  23.914  10.826  1.00  0.00     0.010 A 
BRANCH  14  17
ATOM     17  O5  UNK     1      34.492  26.668   9.084  1.00  0.00    -0.361 OA
ATOM     18  H14 UNK     1      33.774  27.047   9.619  1.00  0.00     0.217 HD
ENDBRANCH  14  17
ENDBRANCH  10  11
ENDBRANCH   9  10
ENDBRANCH   7   9
ENDBRANCH   1   7
BRANCH   2  19
ATOM     19  O2  UNK     1      41.535  26.846  13.302  1.00  0.00    -0.360 OA
ATOM     20  H11 UNK     1      42.176  27.567  13.405  1.00  0.00     0.217 HD
ENDBRANCH   2  19
BRANCH   3  21
ATOM     21  O3  UNK     1      41.441  22.446  11.388  1.00  0.00    -0.360 OA
ATOM     22  H12 UNK     1      40.617  22.406  11.904  1.00  0.00     0.217 HD
ENDBRANCH   3  21
BRANCH   6  23
ATOM     23  O4  UNK     1      44.413  25.747   9.669  1.00  0.00    -0.361 OA
ATOM     24  H13 UNK     1      45.160  25.128   9.745  1.00  0.00     0.217 HD
ENDBRANCH   6  23
TORSDOF 8
ENDMDL
MODEL 13
REMARK VINA RESULT:      -5.5      4.356      6.744
REMARK  8 active torsions:
REMARK  status: ('A' for Active; 'I' for Inactive)
REMARK    1  A    between atoms: O2_2  and  C8_13 
REMARK    2  A    between atoms: O3_3  and  C9_14 
REMARK    3  A    between atoms: O4_4  and  C14_19 
REMARK    4  A    between atoms: O5_5  and  C15_20 
REMARK    5  A    between atoms: C1_6  and  C2_7 
REMARK    6  A    between atoms: C1_6  and  C3_8 
REMARK    7  A    between atoms: C2_7  and  C4_9 
REMARK    8  A    between atoms: C4_9  and  C5_10 
ROOT
ATOM      1  C5  UNK     1      37.251  24.984  11.879  1.00  0.00     0.076 A 
ATOM      2  C8  UNK     1      37.437  26.308  11.482  1.00  0.00     0.085 A 
ATOM      3  C9  UNK     1      36.218  24.228  11.325  1.00  0.00     0.085 A 
ATOM      4  C10 UNK     1      36.589  26.877  10.531  1.00  0.00     0.074 A 
ATOM      5  C11 UNK     1      35.370  24.796  10.375  1.00  0.00     0.074 A 
ATOM      6  C14 UNK     1      35.555  26.121   9.978  1.00  0.00     0.071 A 
ENDROOT
BRANCH   1   7
ATOM      7  C4  UNK     1      38.139  24.391  12.873  1.00  0.00     0.165 C 
ATOM      8  O1  UNK     1      38.017  24.670  14.081  1.00  0.00    -0.292 OA
BRANCH   7   9
ATOM      9  C2  UNK     1      39.240  23.413  12.428  1.00  0.00     0.088 C 
BRANCH   9  10
ATOM     10  C1  UNK     1      40.582  23.659  13.118  1.00  0.00     0.046 C 
BRANCH  10  11
ATOM     11  C3  UNK     1      41.599  24.239  12.169  1.00  0.00    -0.058 A 
ATOM     12  C6  UNK     1      41.973  25.568  12.298  1.00  0.00     0.010 A 
ATOM     13  C12 UNK     1      42.915  26.104  11.420  1.00  0.00     0.037 A 
ATOM     14  C15 UNK     1      43.470  25.305  10.419  1.00  0.00     0.065 A 
ATOM     15  C13 UNK     1      43.085  23.969  10.300  1.00  0.00     0.037 A 
ATOM     16  C7  UNK     1      42.144  23.434  11.179  1.00  0.00     0.010 A 
BRANCH  14  17
ATOM     17  O5  UNK     1      44.389  25.827   9.563  1.00  0.00    -0.361 OA
ATOM     18  H14 UNK     1      45.213  25.315   9.633  1.00  0.00     0.217 HD
ENDBRANCH  14  17
ENDBRANCH  10  11
ENDBRANCH   9  10
ENDBRANCH   7   9
ENDBRANCH   1   7
BRANCH   2  19
ATOM     19  O2  UNK     1      38.440  27.065  12.009  1.00  0.00    -0.360 OA
ATOM     20  H11 UNK     1      39.305  26.751  11.700  1.00  0.00     0.217 HD
ENDBRANCH   2  19
BRANCH   3  21
ATOM     21  O3  UNK     1      36.020  22.932  11.699  1.00  0.00    -0.360 OA
ATOM     22  H12 UNK     1      36.852  22.439  11.590  1.00  0.00     0.217 HD
ENDBRANCH   3  21
BRANCH   6  23
ATOM     23  O4  UNK     1      34.727  26.675   9.051  1.00  0.00    -0.361 OA
ATOM     24  H13 UNK     1      35.240  26.874   8.249  1.00  0.00     0.217 HD
ENDBRANCH   6  23
TORSDOF 8
ENDMDL
MODEL 14
REMARK VINA RESULT:      -5.5      1.699      7.177
REMARK  8 active torsions:
REMARK  status: ('A' for Active; 'I' for Inactive)
REMARK    1  A    between atoms: O2_2  and  C8_13 
REMARK    2  A    between atoms: O3_3  and  C9_14 
REMARK    3  A    between atoms: O4_4  and  C14_19 
REMARK    4  A    between atoms: O5_5  and  C15_20 
REMARK    5  A    between atoms: C1_6  and  C2_7 
REMARK    6  A    between atoms: C1_6  and  C3_8 
REMARK    7  A    between atoms: C2_7  and  C4_9 
REMARK    8  A    between atoms: C4_9  and  C5_10 
ROOT
ATOM      1  C5  UNK     1      42.254  23.798  11.325  1.00  0.00     0.076 A 
ATOM      2  C8  UNK     1      43.389  24.363  10.743  1.00  0.00     0.085 A 
ATOM      3  C9  UNK     1      41.457  24.559  12.180  1.00  0.00     0.085 A 
ATOM      4  C10 UNK     1      43.727  25.688  11.017  1.00  0.00     0.074 A 
ATOM      5  C11 UNK     1      41.794  25.884  12.454  1.00  0.00     0.074 A 
ATOM      6  C14 UNK     1      42.930  26.449  11.872  1.00  0.00     0.071 A 
ENDROOT
BRANCH   1   7
ATOM      7  C4  UNK     1      41.901  22.413  11.037  1.00  0.00     0.165 C 
ATOM      8  O1  UNK     1      40.900  22.142  10.347  1.00  0.00    -0.292 OA
BRANCH   7   9
ATOM      9  C2  UNK     1      42.770  21.271  11.593  1.00  0.00     0.088 C 
BRANCH   9  10
ATOM     10  C1  UNK     1      42.693  19.992  10.758  1.00  0.00     0.046 C 
BRANCH  10  11
ATOM     11  C3  UNK     1      42.228  18.817  11.579  1.00  0.00    -0.058 A 
ATOM     12  C6  UNK     1      40.998  18.875  12.216  1.00  0.00     0.010 A 
ATOM     13  C12 UNK     1      40.567  17.787  12.976  1.00  0.00     0.037 A 
ATOM     14  C15 UNK     1      41.373  16.654  13.092  1.00  0.00     0.065 A 
ATOM     15  C13 UNK     1      42.609  16.609  12.446  1.00  0.00     0.037 A 
ATOM     16  C7  UNK     1      43.039  17.696  11.686  1.00  0.00     0.010 A 
BRANCH  14  17
ATOM     17  O5  UNK     1      40.952  15.593  13.831  1.00  0.00    -0.361 OA
ATOM     18  H14 UNK     1      41.678  15.304  14.410  1.00  0.00     0.217 HD
ENDBRANCH  14  17
ENDBRANCH  10  11
ENDBRANCH   9  10
ENDBRANCH   7   9
ENDBRANCH   1   7
BRANCH   2  19
ATOM     19  O2  UNK     1      44.182  23.638   9.904  1.00  0.00    -0.360 OA
ATOM     20  H11 UNK     1      44.660  24.222   9.294  1.00  0.00     0.217 HD
ENDBRANCH   2  19
BRANCH   3  21
ATOM     21  O3  UNK     1      40.343  24.026  12.758  1.00  0.00    -0.360 OA
ATOM     22  H12 UNK     1      39.566  24.546  12.490  1.00  0.00     0.217 HD
ENDBRANCH   3  21
BRANCH   6  23
ATOM     23  O4  UNK     1      43.260  27.742  12.140  1.00  0.00    -0.361 OA
ATOM     24  H13 UNK     1      42.675  28.328  11.631  1.00  0.00     0.217 HD
ENDBRANCH   6  23
TORSDOF 8
ENDMDL
MODEL 15
REMARK VINA RESULT:      -5.5      1.690      7.392
REMARK  8 active torsions:
REMARK  status: ('A' for Active; 'I' for Inactive)
REMARK    1  A    between atoms: O2_2  and  C8_13 
REMARK    2  A    between atoms: O3_3  and  C9_14 
REMARK    3  A    between atoms: O4_4  and  C14_19 
REMARK    4  A    between atoms: O5_5  and  C15_20 
REMARK    5  A    between atoms: C1_6  and  C2_7 
REMARK    6  A    between atoms: C1_6  and  C3_8 
REMARK    7  A    between atoms: C2_7  and  C4_9 
REMARK    8  A    between atoms: C4_9  and  C5_10 
ROOT
ATOM      1  C5  UNK     1      42.260  23.815  11.304  1.00  0.00     0.076 A 
ATOM      2  C8  UNK     1      41.468  24.557  12.181  1.00  0.00     0.085 A 
ATOM      3  C9  UNK     1      43.388  24.395  10.724  1.00  0.00     0.085 A 
ATOM      4  C10 UNK     1      41.804  25.877  12.477  1.00  0.00     0.074 A 
ATOM      5  C11 UNK     1      43.725  25.715  11.021  1.00  0.00     0.074 A 
ATOM      6  C14 UNK     1      42.932  26.457  11.898  1.00  0.00     0.071 A 
ENDROOT
BRANCH   1   7
ATOM      7  C4  UNK     1      41.908  22.434  10.995  1.00  0.00     0.165 C 
ATOM      8  O1  UNK     1      40.880  22.172  10.339  1.00  0.00    -0.292 OA
BRANCH   7   9
ATOM      9  C2  UNK     1      42.809  21.288  11.483  1.00  0.00     0.088 C 
BRANCH   9  10
ATOM     10  C1  UNK     1      42.624  19.993  10.689  1.00  0.00     0.046 C 
BRANCH  10  11
ATOM     11  C3  UNK     1      42.206  18.849  11.576  1.00  0.00    -0.058 A 
ATOM     12  C6  UNK     1      41.006  18.925  12.266  1.00  0.00     0.010 A 
ATOM     13  C12 UNK     1      40.619  17.866  13.088  1.00  0.00     0.037 A 
ATOM     14  C15 UNK     1      41.439  16.743  13.211  1.00  0.00     0.065 A 
ATOM     15  C13 UNK     1      42.644  16.680  12.511  1.00  0.00     0.037 A 
ATOM     16  C7  UNK     1      43.030  17.738  11.690  1.00  0.00     0.010 A 
BRANCH  14  17
ATOM     17  O5  UNK     1      41.061  15.710  14.011  1.00  0.00    -0.361 OA
ATOM     18  H14 UNK     1      41.732  15.584  14.702  1.00  0.00     0.217 HD
ENDBRANCH  14  17
ENDBRANCH  10  11
ENDBRANCH   9  10
ENDBRANCH   7   9
ENDBRANCH   1   7
BRANCH   2  19
ATOM     19  O2  UNK     1      40.361  24.010  12.759  1.00  0.00    -0.360 OA
ATOM     20  H11 UNK     1      40.603  23.499  13.548  1.00  0.00     0.217 HD
ENDBRANCH   2  19
BRANCH   3  21
ATOM     21  O3  UNK     1      44.176  23.688   9.865  1.00  0.00    -0.360 OA
ATOM     22  H12 UNK     1      43.641  23.401   9.105  1.00  0.00     0.217 HD
ENDBRANCH   3  21
BRANCH   6  23
ATOM     23  O4  UNK     1      43.260  27.746  12.186  1.00  0.00    -0.361 OA
ATOM     24  H13 UNK     1      42.967  28.317  11.455  1.00  0.00     0.217 HD
ENDBRANCH   6  23
TORSDOF 8
ENDMDL
MODEL 16
REMARK VINA RESULT:      -5.5      3.506      5.228
REMARK  8 active torsions:
REMARK  status: ('A' for Active; 'I' for Inactive)
REMARK    1  A    between atoms: O2_2  and  C8_13 
REMARK    2  A    between atoms: O3_3  and  C9_14 
REMARK    3  A    between atoms: O4_4  and  C14_19 
REMARK    4  A    between atoms: O5_5  and  C15_20 
REMARK    5  A    between atoms: C1_6  and  C2_7 
REMARK    6  A    between atoms: C1_6  and  C3_8 
REMARK    7  A    between atoms: C2_7  and  C4_9 
REMARK    8  A    between atoms: C4_9  and  C5_10 
ROOT
ATOM      1  C5  UNK     1      41.812  21.073  10.956  1.00  0.00     0.076 A 
ATOM      2  C8  UNK     1      42.239  22.388  11.141  1.00  0.00     0.085 A 
ATOM      3  C9  UNK     1      42.726  20.091  10.573  1.00  0.00     0.085 A 
ATOM      4  C10 UNK     1      43.579  22.721  10.943  1.00  0.00     0.074 A 
ATOM      5  C11 UNK     1      44.065  20.423  10.375  1.00  0.00     0.074 A 
ATOM      6  C14 UNK     1      44.492  21.739  10.560  1.00  0.00     0.071 A 
ENDROOT
BRANCH   1   7
ATOM      7  C4  UNK     1      40.411  20.726  11.165  1.00  0.00     0.165 C 
ATOM      8  O1  UNK     1      40.065  20.046  12.150  1.00  0.00    -0.292 OA
BRANCH   7   9
ATOM      9  C2  UNK     1      39.348  21.200  10.159  1.00  0.00     0.088 C 
BRANCH   9  10
ATOM     10  C1  UNK     1      37.924  21.151  10.716  1.00  0.00     0.046 C 
BRANCH  10  11
ATOM     11  C3  UNK     1      37.334  22.530  10.860  1.00  0.00    -0.058 A 
ATOM     12  C6  UNK     1      36.310  22.925  10.013  1.00  0.00     0.010 A 
ATOM     13  C12 UNK     1      35.763  24.202  10.147  1.00  0.00     0.037 A 
ATOM     14  C15 UNK     1      36.250  25.070  11.125  1.00  0.00     0.065 A 
ATOM     15  C13 UNK     1      37.282  24.660  11.970  1.00  0.00     0.037 A 
ATOM     16  C7  UNK     1      37.827  23.383  11.837  1.00  0.00     0.010 A 
BRANCH  14  17
ATOM     17  O5  UNK     1      35.717  26.315  11.256  1.00  0.00    -0.361 OA
ATOM     18  H14 UNK     1      36.226  26.936  10.709  1.00  0.00     0.217 HD
ENDBRANCH  14  17
ENDBRANCH  10  11
ENDBRANCH   9  10
ENDBRANCH   7   9
ENDBRANCH   1   7
BRANCH   2  19
ATOM     19  O2  UNK     1      41.363  23.364  11.516  1.00  0.00    -0.360 OA
ATOM     20  H11 UNK     1      41.732  23.896  12.239  1.00  0.00     0.217 HD
ENDBRANCH   2  19
BRANCH   3  21
ATOM     21  O3  UNK     1      42.329  18.800  10.388  1.00  0.00    -0.360 OA
ATOM     22  H12 UNK     1      43.096  18.268  10.114  1.00  0.00     0.217 HD
ENDBRANCH   3  21
BRANCH   6  23
ATOM     23  O4  UNK     1      45.799  22.063  10.365  1.00  0.00    -0.361 OA
ATOM     24  H13 UNK     1      46.248  21.317   9.932  1.00  0.00     0.217 HD
ENDBRANCH   6  23
TORSDOF 8
ENDMDL
MODEL 17
REMARK VINA RESULT:      -5.5      3.522      5.058
REMARK  8 active torsions:
REMARK  status: ('A' for Active; 'I' for Inactive)
REMARK    1  A    between atoms: O2_2  and  C8_13 
REMARK    2  A    between atoms: O3_3  and  C9_14 
REMARK    3  A    between atoms: O4_4  and  C14_19 
REMARK    4  A    between atoms: O5_5  and  C15_20 
REMARK    5  A    between atoms: C1_6  and  C2_7 
REMARK    6  A    between atoms: C1_6  and  C3_8 
REMARK    7  A    between atoms: C2_7  and  C4_9 
REMARK    8  A    between atoms: C4_9  and  C5_10 
ROOT
ATOM      1  C5  UNK     1      41.757  21.076  10.976  1.00  0.00     0.076 A 
ATOM      2  C8  UNK     1      42.657  20.082  10.593  1.00  0.00     0.085 A 
ATOM      3  C9  UNK     1      42.198  22.389  11.141  1.00  0.00     0.085 A 
ATOM      4  C10 UNK     1      43.997  20.399  10.376  1.00  0.00     0.074 A 
ATOM      5  C11 UNK     1      43.538  22.708  10.925  1.00  0.00     0.074 A 
ATOM      6  C14 UNK     1      44.439  21.712  10.542  1.00  0.00     0.071 A 
ENDROOT
BRANCH   1   7
ATOM      7  C4  UNK     1      40.355  20.743  11.201  1.00  0.00     0.165 C 
ATOM      8  O1  UNK     1      40.017  20.051  12.181  1.00  0.00    -0.292 OA
BRANCH   7   9
ATOM      9  C2  UNK     1      39.282  21.246  10.221  1.00  0.00     0.088 C 
BRANCH   9  10
ATOM     10  C1  UNK     1      37.871  21.236  10.812  1.00  0.00     0.046 C 
BRANCH  10  11
ATOM     11  C3  UNK     1      37.312  22.630  10.942  1.00  0.00    -0.058 A 
ATOM     12  C6  UNK     1      37.832  23.486  11.901  1.00  0.00     0.010 A 
ATOM     13  C12 UNK     1      37.315  24.776  12.021  1.00  0.00     0.037 A 
ATOM     14  C15 UNK     1      36.281  25.194  11.182  1.00  0.00     0.065 A 
ATOM     15  C13 UNK     1      35.767  24.323  10.221  1.00  0.00     0.037 A 
ATOM     16  C7  UNK     1      36.285  23.033  10.101  1.00  0.00     0.010 A 
BRANCH  14  17
ATOM     17  O5  UNK     1      35.778  26.453  11.298  1.00  0.00    -0.361 OA
ATOM     18  H14 UNK     1      36.505  27.093  11.216  1.00  0.00     0.217 HD
ENDBRANCH  14  17
ENDBRANCH  10  11
ENDBRANCH   9  10
ENDBRANCH   7   9
ENDBRANCH   1   7
BRANCH   2  19
ATOM     19  O2  UNK     1      42.247  18.792  10.424  1.00  0.00    -0.360 OA
ATOM     20  H11 UNK     1      42.860  18.311   9.846  1.00  0.00     0.217 HD
ENDBRANCH   2  19
BRANCH   3  21
ATOM     21  O3  UNK     1      41.335  23.377  11.514  1.00  0.00    -0.360 OA
ATOM     22  H12 UNK     1      40.469  22.983  11.715  1.00  0.00     0.217 HD
ENDBRANCH   3  21
BRANCH   6  23
ATOM     23  O4  UNK     1      45.747  22.023  10.332  1.00  0.00    -0.361 OA
ATOM     24  H13 UNK     1      46.088  21.473   9.605  1.00  0.00     0.217 HD
ENDBRANCH   6  23
TORSDOF 8
ENDMDL
MODEL 18
REMARK VINA RESULT:      -5.5      4.373      6.795
REMARK  8 active torsions:
REMARK  status: ('A' for Active; 'I' for Inactive)
REMARK    1  A    between atoms: O2_2  and  C8_13 
REMARK    2  A    between atoms: O3_3  and  C9_14 
REMARK    3  A    between atoms: O4_4  and  C14_19 
REMARK    4  A    between atoms: O5_5  and  C15_20 
REMARK    5  A    between atoms: C1_6  and  C2_7 
REMARK    6  A    between atoms: C1_6  and  C3_8 
REMARK    7  A    between atoms: C2_7  and  C4_9 
REMARK    8  A    between atoms: C4_9  and  C5_10 
ROOT
ATOM      1  C5  UNK     1      37.292  25.004  11.876  1.00  0.00     0.076 A 
ATOM      2  C8  UNK     1      36.268  24.218  11.348  1.00  0.00     0.085 A 
ATOM      3  C9  UNK     1      37.428  26.333  11.474  1.00  0.00     0.085 A 
ATOM      4  C10 UNK     1      35.380  24.760  10.419  1.00  0.00     0.074 A 
ATOM      5  C11 UNK     1      36.541  26.876  10.545  1.00  0.00     0.074 A 
ATOM      6  C14 UNK     1      35.516  26.089  10.017  1.00  0.00     0.071 A 
ENDROOT
BRANCH   1   7
ATOM      7  C4  UNK     1      38.219  24.436  12.848  1.00  0.00     0.165 C 
ATOM      8  O1  UNK     1      38.158  24.762  14.049  1.00  0.00    -0.292 OA
BRANCH   7   9
ATOM      9  C2  UNK     1      39.286  23.428  12.388  1.00  0.00     0.088 C 
BRANCH   9  10
ATOM     10  C1  UNK     1      40.638  23.622  13.078  1.00  0.00     0.046 C 
BRANCH  10  11
ATOM     11  C3  UNK     1      41.640  24.279  12.165  1.00  0.00    -0.058 A 
ATOM     12  C6  UNK     1      41.957  25.616  12.349  1.00  0.00     0.010 A 
ATOM     13  C12 UNK     1      42.885  26.224  11.504  1.00  0.00     0.037 A 
ATOM     14  C15 UNK     1      43.485  25.487  10.482  1.00  0.00     0.065 A 
ATOM     15  C13 UNK     1      43.157  24.142  10.306  1.00  0.00     0.037 A 
ATOM     16  C7  UNK     1      42.230  23.535  11.153  1.00  0.00     0.010 A 
BRANCH  14  17
ATOM     17  O5  UNK     1      44.391  26.079   9.658  1.00  0.00    -0.361 OA
ATOM     18  H14 UNK     1      44.938  26.692  10.179  1.00  0.00     0.217 HD
ENDBRANCH  14  17
ENDBRANCH  10  11
ENDBRANCH   9  10
ENDBRANCH   7   9
ENDBRANCH   1   7
BRANCH   2  19
ATOM     19  O2  UNK     1      36.116  22.917  11.727  1.00  0.00    -0.360 OA
ATOM     20  H11 UNK     1      35.453  22.474  11.174  1.00  0.00     0.217 HD
ENDBRANCH   2  19
BRANCH   3  21
ATOM     21  O3  UNK     1      38.421  27.119  11.978  1.00  0.00    -0.360 OA
ATOM     22  H12 UNK     1      38.034  27.947  12.312  1.00  0.00     0.217 HD
ENDBRANCH   3  21
BRANCH   6  23
ATOM     23  O4  UNK     1      34.651  26.618   9.110  1.00  0.00    -0.361 OA
ATOM     24  H13 UNK     1      34.446  25.944   8.440  1.00  0.00     0.217 HD
ENDBRANCH   6  23
TORSDOF 8
ENDMDL
MODEL 19
REMARK VINA RESULT:      -5.5      4.278      6.823
REMARK  8 active torsions:
REMARK  status: ('A' for Active; 'I' for Inactive)
REMARK    1  A    between atoms: O2_2  and  C8_13 
REMARK    2  A    between atoms: O3_3  and  C9_14 
REMARK    3  A    between atoms: O4_4  and  C14_19 
REMARK    4  A    between atoms: O5_5  and  C15_20 
REMARK    5  A    between atoms: C1_6  and  C2_7 
REMARK    6  A    between atoms: C1_6  and  C3_8 
REMARK    7  A    between atoms: C2_7  and  C4_9 
REMARK    8  A    between atoms: C4_9  and  C5_10 
ROOT
ATOM      1  C5  UNK     1      43.018  25.924  12.453  1.00  0.00     0.076 A 
ATOM      2  C8  UNK     1      43.030  24.691  13.105  1.00  0.00     0.085 A 
ATOM      3  C9  UNK     1      43.374  26.004  11.107  1.00  0.00     0.085 A 
ATOM      4  C10 UNK     1      43.398  23.539  12.411  1.00  0.00     0.074 A 
ATOM      5  C11 UNK     1      43.741  24.852  10.412  1.00  0.00     0.074 A 
ATOM      6  C14 UNK     1      43.754  23.619  11.064  1.00  0.00     0.071 A 
ENDROOT
BRANCH   1   7
ATOM      7  C4  UNK     1      42.633  27.129  13.180  1.00  0.00     0.165 C 
ATOM      8  O1  UNK     1      43.476  28.007  13.445  1.00  0.00    -0.292 OA
BRANCH   7   9
ATOM      9  C2  UNK     1      41.174  27.318  13.627  1.00  0.00     0.088 C 
BRANCH   9  10
ATOM     10  C1  UNK     1      40.286  27.935  12.544  1.00  0.00     0.046 C 
BRANCH  10  11
ATOM     11  C3  UNK     1      39.122  27.041  12.202  1.00  0.00    -0.058 A 
ATOM     12  C6  UNK     1      38.089  27.536  11.421  1.00  0.00     0.010 A 
ATOM     13  C12 UNK     1      37.011  26.708  11.104  1.00  0.00     0.037 A 
ATOM     14  C15 UNK     1      36.980  25.394  11.573  1.00  0.00     0.065 A 
ATOM     15  C13 UNK     1      38.026  24.909  12.359  1.00  0.00     0.037 A 
ATOM     16  C7  UNK     1      39.102  25.737  12.675  1.00  0.00     0.010 A 
BRANCH  14  17
ATOM     17  O5  UNK     1      35.930  24.586  11.263  1.00  0.00    -0.361 OA
ATOM     18  H14 UNK     1      35.272  24.636  11.976  1.00  0.00     0.217 HD
ENDBRANCH  14  17
ENDBRANCH  10  11
ENDBRANCH   9  10
ENDBRANCH   7   9
ENDBRANCH   1   7
BRANCH   2  19
ATOM     19  O2  UNK     1      42.686  24.590  14.420  1.00  0.00    -0.360 OA
ATOM     20  H11 UNK     1      43.104  23.812  14.824  1.00  0.00     0.217 HD
ENDBRANCH   2  19
BRANCH   3  21
ATOM     21  O3  UNK     1      43.368  27.199  10.450  1.00  0.00    -0.360 OA
ATOM     22  H12 UNK     1      44.190  27.285   9.938  1.00  0.00     0.217 HD
ENDBRANCH   3  21
BRANCH   6  23
ATOM     23  O4  UNK     1      44.113  22.495  10.387  1.00  0.00    -0.361 OA
ATOM     24  H13 UNK     1      43.482  21.785  10.596  1.00  0.00     0.217 HD
ENDBRANCH   6  23
TORSDOF 8
ENDMDL
MODEL 20
REMARK VINA RESULT:      -5.4      1.645      2.693
REMARK  8 active torsions:
REMARK  status: ('A' for Active; 'I' for Inactive)
REMARK    1  A    between atoms: O2_2  and  C8_13 
REMARK    2  A    between atoms: O3_3  and  C9_14 
REMARK    3  A    between atoms: O4_4  and  C14_19 
REMARK    4  A    between atoms: O5_5  and  C15_20 
REMARK    5  A    between atoms: C1_6  and  C2_7 
REMARK    6  A    between atoms: C1_6  and  C3_8 
REMARK    7  A    between atoms: C2_7  and  C4_9 
REMARK    8  A    between atoms: C4_9  and  C5_10 
ROOT
ATOM      1  C5  UNK     1      43.895  19.067  11.674  1.00  0.00     0.076 A 
ATOM      2  C8  UNK     1      42.662  18.475  11.402  1.00  0.00     0.085 A 
ATOM      3  C9  UNK     1      44.632  18.661  12.787  1.00  0.00     0.085 A 
ATOM      4  C10 UNK     1      42.165  17.478  12.241  1.00  0.00     0.074 A 
ATOM      5  C11 UNK     1      44.137  17.664  13.626  1.00  0.00     0.074 A 
ATOM      6  C14 UNK     1      42.902  17.072  13.353  1.00  0.00     0.071 A 
ENDROOT
BRANCH   1   7
ATOM      7  C4  UNK     1      44.413  20.109  10.796  1.00  0.00     0.165 C 
ATOM      8  O1  UNK     1      44.933  19.817   9.701  1.00  0.00    -0.292 OA
BRANCH   7   9
ATOM      9  C2  UNK     1      44.321  21.584  11.222  1.00  0.00     0.088 C 
BRANCH   9  10
ATOM     10  C1  UNK     1      42.969  22.223  10.899  1.00  0.00     0.046 C 
BRANCH  10  11
ATOM     11  C3  UNK     1      42.961  23.698  11.212  1.00  0.00    -0.058 A 
ATOM     12  C6  UNK     1      42.237  24.159  12.300  1.00  0.00     0.010 A 
ATOM     13  C12 UNK     1      42.230  25.524  12.590  1.00  0.00     0.037 A 
ATOM     14  C15 UNK     1      42.946  26.412  11.786  1.00  0.00     0.065 A 
ATOM     15  C13 UNK     1      43.670  25.934  10.693  1.00  0.00     0.037 A 
ATOM     16  C7  UNK     1      43.678  24.570  10.404  1.00  0.00     0.010 A 
BRANCH  14  17
ATOM     17  O5  UNK     1      42.940  27.742  12.069  1.00  0.00    -0.361 OA
ATOM     18  H14 UNK     1      43.638  27.929  12.720  1.00  0.00     0.217 HD
ENDBRANCH  14  17
ENDBRANCH  10  11
ENDBRANCH   9  10
ENDBRANCH   7   9
ENDBRANCH   1   7
BRANCH   2  19
ATOM     19  O2  UNK     1      41.925  18.856  10.320  1.00  0.00    -0.360 OA
ATOM     20  H11 UNK     1      41.755  18.099   9.737  1.00  0.00     0.217 HD
ENDBRANCH   2  19
BRANCH   3  21
ATOM     21  O3  UNK     1      45.840  19.225  13.071  1.00  0.00    -0.360 OA
ATOM     22  H12 UNK     1      46.483  18.962  12.390  1.00  0.00     0.217 HD
ENDBRANCH   3  21
BRANCH   6  23
ATOM     23  O4  UNK     1      42.418  16.100  14.173  1.00  0.00    -0.361 OA
ATOM     24  H13 UNK     1      43.138  15.783  14.746  1.00  0.00     0.217 HD
ENDBRANCH   6  23
TORSDOF 8
ENDMDL
