MODEL 1
REMARK VINA RESULT:      -5.9      0.000      0.000
REMARK  8 active torsions:
REMARK  status: ('A' for Active; 'I' for Inactive)
REMARK    1  A    between atoms: O2_2  and  C8_13 
REMARK    2  A    between atoms: O3_3  and  C9_14 
REMARK    3  A    between atoms: O4_4  and  C14_19 
REMARK    4  A    between atoms: O5_5  and  C15_20 
REMARK    5  A    between atoms: C1_6  and  C2_7 
REMARK    6  A    between atoms: C1_6  and  C3_8 
REMARK    7  A    between atoms: C2_7  and  C4_9 
REMARK    8  A    between atoms: C4_9  and  C5_10 
ROOT
ATOM      1  C5  UNK     1      41.132   0.620   8.839  1.00  0.00     0.076 A 
ATOM      2  C8  UNK     1      41.114   1.919   8.331  1.00  0.00     0.085 A 
ATOM      3  C9  UNK     1      40.194  -0.313   8.399  1.00  0.00     0.085 A 
ATOM      4  C10 UNK     1      40.158   2.285   7.385  1.00  0.00     0.074 A 
ATOM      5  C11 UNK     1      39.238   0.052   7.452  1.00  0.00     0.074 A 
ATOM      6  C14 UNK     1      39.219   1.352   6.945  1.00  0.00     0.071 A 
ENDROOT
BRANCH   1   7
ATOM      7  C4  UNK     1      42.133   0.239   9.829  1.00  0.00     0.165 C 
ATOM      8  O1  UNK     1      41.867   0.269  11.046  1.00  0.00    -0.292 OA
BRANCH   7   9
ATOM      9  C2  UNK     1      43.533  -0.203   9.370  1.00  0.00     0.088 C 
BRANCH   9  10
ATOM     10  C1  UNK     1      44.662   0.617   9.998  1.00  0.00     0.046 C 
BRANCH  10  11
ATOM     11  C3  UNK     1      45.644   1.100   8.961  1.00  0.00    -0.058 A 
ATOM     12  C6  UNK     1      46.998   0.867   9.144  1.00  0.00     0.010 A 
ATOM     13  C12 UNK     1      47.907   1.314   8.184  1.00  0.00     0.037 A 
ATOM     14  C15 UNK     1      47.449   1.991   7.053  1.00  0.00     0.065 A 
ATOM     15  C13 UNK     1      46.084   2.219   6.881  1.00  0.00     0.037 A 
ATOM     16  C7  UNK     1      45.176   1.772   7.841  1.00  0.00     0.010 A 
BRANCH  14  17
ATOM     17  O5  UNK     1      48.335   2.425   6.116  1.00  0.00    -0.361 OA
ATOM     18  H14 UNK     1      47.856   2.935   5.441  1.00  0.00     0.217 HD
ENDBRANCH  14  17
ENDBRANCH  10  11
ENDBRANCH   9  10
ENDBRANCH   7   9
ENDBRANCH   1   7
BRANCH   2  19
ATOM     19  O2  UNK     1      42.022   2.847   8.747  1.00  0.00    -0.360 OA
ATOM     20  H11 UNK     1      42.454   2.561   9.568  1.00  0.00     0.217 HD
ENDBRANCH   2  19
BRANCH   3  21
ATOM     21  O3  UNK     1      40.194  -1.588   8.882  1.00  0.00    -0.360 OA
ATOM     22  H12 UNK     1      40.474  -1.576   9.814  1.00  0.00     0.217 HD
ENDBRANCH   3  21
BRANCH   6  23
ATOM     23  O4  UNK     1      38.285   1.708   6.022  1.00  0.00    -0.361 OA
ATOM     24  H13 UNK     1      38.590   2.507   5.557  1.00  0.00     0.217 HD
ENDBRANCH   6  23
TORSDOF 8
ENDMDL
MODEL 2
REMARK VINA RESULT:      -5.9      0.037      1.863
REMARK  8 active torsions:
REMARK  status: ('A' for Active; 'I' for Inactive)
REMARK    1  A    between atoms: O2_2  and  C8_13 
REMARK    2  A    between atoms: O3_3  and  C9_14 
REMARK    3  A    between atoms: O4_4  and  C14_19 
REMARK    4  A    between atoms: O5_5  and  C15_20 
REMARK    5  A    between atoms: C1_6  and  C2_7 
REMARK    6  A    between atoms: C1_6  and  C3_8 
REMARK    7  A    between atoms: C2_7  and  C4_9 
REMARK    8  A    between atoms: C4_9  and  C5_10 
ROOT
ATOM      1  C5  UNK     1      41.142   0.639   8.836  1.00  0.00     0.076 A 
ATOM      2  C8  UNK     1      40.211  -0.297   8.386  1.00  0.00     0.085 A 
ATOM      3  C9  UNK     1      41.109   1.945   8.348  1.00  0.00     0.085 A 
ATOM      4  C10 UNK     1      39.248   0.072   7.447  1.00  0.00     0.074 A 
ATOM      5  C11 UNK     1      40.146   2.315   7.409  1.00  0.00     0.074 A 
ATOM      6  C14 UNK     1      39.215   1.378   6.959  1.00  0.00     0.071 A 
ENDROOT
BRANCH   1   7
ATOM      7  C4  UNK     1      42.148   0.252   9.819  1.00  0.00     0.165 C 
ATOM      8  O1  UNK     1      41.884   0.263  11.037  1.00  0.00    -0.292 OA
BRANCH   7   9
ATOM      9  C2  UNK     1      43.551  -0.172   9.350  1.00  0.00     0.088 C 
BRANCH   9  10
ATOM     10  C1  UNK     1      44.674   0.652   9.984  1.00  0.00     0.046 C 
BRANCH  10  11
ATOM     11  C3  UNK     1      45.662   1.133   8.953  1.00  0.00    -0.058 A 
ATOM     12  C6  UNK     1      47.014   0.888   9.138  1.00  0.00     0.010 A 
ATOM     13  C12 UNK     1      47.929   1.333   8.184  1.00  0.00     0.037 A 
ATOM     14  C15 UNK     1      47.480   2.021   7.055  1.00  0.00     0.065 A 
ATOM     15  C13 UNK     1      46.117   2.261   6.881  1.00  0.00     0.037 A 
ATOM     16  C7  UNK     1      45.203   1.815   7.835  1.00  0.00     0.010 A 
BRANCH  14  17
ATOM     17  O5  UNK     1      48.372   2.453   6.123  1.00  0.00    -0.361 OA
ATOM     18  H14 UNK     1      48.133   2.078   5.259  1.00  0.00     0.217 HD
ENDBRANCH  14  17
ENDBRANCH  10  11
ENDBRANCH   9  10
ENDBRANCH   7   9
ENDBRANCH   1   7
BRANCH   2  19
ATOM     19  O2  UNK     1      40.225  -1.579   8.851  1.00  0.00    -0.360 OA
ATOM     20  H11 UNK     1      41.111  -1.965   8.764  1.00  0.00     0.217 HD
ENDBRANCH   2  19
BRANCH   3  21
ATOM     21  O3  UNK     1      42.009   2.876   8.775  1.00  0.00    -0.360 OA
ATOM     22  H12 UNK     1      42.021   2.883   9.748  1.00  0.00     0.217 HD
ENDBRANCH   3  21
BRANCH   6  23
ATOM     23  O4  UNK     1      38.276   1.738   6.042  1.00  0.00    -0.361 OA
ATOM     24  H13 UNK     1      38.257   1.073   5.333  1.00  0.00     0.217 HD
ENDBRANCH   6  23
TORSDOF 8
ENDMDL
MODEL 3
REMARK VINA RESULT:      -5.8      2.730      3.995
REMARK  8 active torsions:
REMARK  status: ('A' for Active; 'I' for Inactive)
REMARK    1  A    between atoms: O2_2  and  C8_13 
REMARK    2  A    between atoms: O3_3  and  C9_14 
REMARK    3  A    between atoms: O4_4  and  C14_19 
REMARK    4  A    between atoms: O5_5  and  C15_20 
REMARK    5  A    between atoms: C1_6  and  C2_7 
REMARK    6  A    between atoms: C1_6  and  C3_8 
REMARK    7  A    between atoms: C2_7  and  C4_9 
REMARK    8  A    between atoms: C4_9  and  C5_10 
ROOT
ATOM      1  C5  UNK     1      39.805  -1.922   9.775  1.00  0.00     0.076 A 
ATOM      2  C8  UNK     1      40.622  -2.401   8.751  1.00  0.00     0.085 A 
ATOM      3  C9  UNK     1      38.522  -1.459   9.484  1.00  0.00     0.085 A 
ATOM      4  C10 UNK     1      40.156  -2.416   7.436  1.00  0.00     0.074 A 
ATOM      5  C11 UNK     1      38.056  -1.474   8.171  1.00  0.00     0.074 A 
ATOM      6  C14 UNK     1      38.873  -1.953   7.146  1.00  0.00     0.071 A 
ENDROOT
BRANCH   1   7
ATOM      7  C4  UNK     1      40.293  -1.907  11.150  1.00  0.00     0.165 C 
ATOM      8  O1  UNK     1      39.826  -2.692  11.998  1.00  0.00    -0.292 OA
BRANCH   7   9
ATOM      9  C2  UNK     1      41.393  -0.913  11.560  1.00  0.00     0.088 C 
BRANCH   9  10
ATOM     10  C1  UNK     1      41.108   0.522  11.110  1.00  0.00     0.046 C 
BRANCH  10  11
ATOM     11  C3  UNK     1      41.832   0.858   9.832  1.00  0.00    -0.058 A 
ATOM     12  C6  UNK     1      41.191   1.616   8.864  1.00  0.00     0.010 A 
ATOM     13  C12 UNK     1      41.861   1.928   7.681  1.00  0.00     0.037 A 
ATOM     14  C15 UNK     1      43.166   1.476   7.479  1.00  0.00     0.065 A 
ATOM     15  C13 UNK     1      43.800   0.714   8.460  1.00  0.00     0.037 A 
ATOM     16  C7  UNK     1      43.130   0.403   9.643  1.00  0.00     0.010 A 
BRANCH  14  17
ATOM     17  O5  UNK     1      43.820   1.782   6.326  1.00  0.00    -0.361 OA
ATOM     18  H14 UNK     1      43.186   1.768   5.590  1.00  0.00     0.217 HD
ENDBRANCH  14  17
ENDBRANCH  10  11
ENDBRANCH   9  10
ENDBRANCH   7   9
ENDBRANCH   1   7
BRANCH   2  19
ATOM     19  O2  UNK     1      41.879  -2.859   9.012  1.00  0.00    -0.360 OA
ATOM     20  H11 UNK     1      41.921  -3.260   9.895  1.00  0.00     0.217 HD
ENDBRANCH   2  19
BRANCH   3  21
ATOM     21  O3  UNK     1      37.707  -0.987  10.471  1.00  0.00    -0.360 OA
ATOM     22  H12 UNK     1      37.189  -1.726  10.835  1.00  0.00     0.217 HD
ENDBRANCH   3  21
BRANCH   6  23
ATOM     23  O4  UNK     1      38.418  -1.966   5.863  1.00  0.00    -0.361 OA
ATOM     24  H13 UNK     1      37.445  -1.977   5.874  1.00  0.00     0.217 HD
ENDBRANCH   6  23
TORSDOF 8
ENDMDL
MODEL 4
REMARK VINA RESULT:      -5.8      2.727      3.981
REMARK  8 active torsions:
REMARK  status: ('A' for Active; 'I' for Inactive)
REMARK    1  A    between atoms: O2_2  and  C8_13 
REMARK    2  A    between atoms: O3_3  and  C9_14 
REMARK    3  A    between atoms: O4_4  and  C14_19 
REMARK    4  A    between atoms: O5_5  and  C15_20 
REMARK    5  A    between atoms: C1_6  and  C2_7 
REMARK    6  A    between atoms: C1_6  and  C3_8 
REMARK    7  A    between atoms: C2_7  and  C4_9 
REMARK    8  A    between atoms: C4_9  and  C5_10 
ROOT
ATOM      1  C5  UNK     1      39.802  -1.916   9.778  1.00  0.00     0.076 A 
ATOM      2  C8  UNK     1      38.520  -1.450   9.484  1.00  0.00     0.085 A 
ATOM      3  C9  UNK     1      40.620  -2.397   8.755  1.00  0.00     0.085 A 
ATOM      4  C10 UNK     1      38.057  -1.465   8.169  1.00  0.00     0.074 A 
ATOM      5  C11 UNK     1      40.157  -2.412   7.440  1.00  0.00     0.074 A 
ATOM      6  C14 UNK     1      38.874  -1.946   7.147  1.00  0.00     0.071 A 
ENDROOT
BRANCH   1   7
ATOM      7  C4  UNK     1      40.286  -1.898  11.154  1.00  0.00     0.165 C 
ATOM      8  O1  UNK     1      39.807  -2.672  12.005  1.00  0.00    -0.292 OA
BRANCH   7   9
ATOM      9  C2  UNK     1      41.396  -0.915  11.561  1.00  0.00     0.088 C 
BRANCH   9  10
ATOM     10  C1  UNK     1      41.123   0.523  11.116  1.00  0.00     0.046 C 
BRANCH  10  11
ATOM     11  C3  UNK     1      41.845   0.856   9.835  1.00  0.00    -0.058 A 
ATOM     12  C6  UNK     1      41.200   1.609   8.866  1.00  0.00     0.010 A 
ATOM     13  C12 UNK     1      41.869   1.918   7.681  1.00  0.00     0.037 A 
ATOM     14  C15 UNK     1      43.174   1.468   7.478  1.00  0.00     0.065 A 
ATOM     15  C13 UNK     1      43.811   0.710   8.462  1.00  0.00     0.037 A 
ATOM     16  C7  UNK     1      43.142   0.403   9.647  1.00  0.00     0.010 A 
BRANCH  14  17
ATOM     17  O5  UNK     1      43.826   1.770   6.324  1.00  0.00    -0.361 OA
ATOM     18  H14 UNK     1      44.783   1.772   6.493  1.00  0.00     0.217 HD
ENDBRANCH  14  17
ENDBRANCH  10  11
ENDBRANCH   9  10
ENDBRANCH   7   9
ENDBRANCH   1   7
BRANCH   2  19
ATOM     19  O2  UNK     1      37.704  -0.975  10.468  1.00  0.00    -0.360 OA
ATOM     20  H11 UNK     1      37.970  -0.079  10.730  1.00  0.00     0.217 HD
ENDBRANCH   2  19
BRANCH   3  21
ATOM     21  O3  UNK     1      41.876  -2.856   9.021  1.00  0.00    -0.360 OA
ATOM     22  H12 UNK     1      41.813  -3.650   9.579  1.00  0.00     0.217 HD
ENDBRANCH   3  21
BRANCH   6  23
ATOM     23  O4  UNK     1      38.423  -1.962   5.863  1.00  0.00    -0.361 OA
ATOM     24  H13 UNK     1      38.404  -1.051   5.524  1.00  0.00     0.217 HD
ENDBRANCH   6  23
TORSDOF 8
ENDMDL
MODEL 5
REMARK VINA RESULT:      -5.7      1.693      2.707
REMARK  8 active torsions:
REMARK  status: ('A' for Active; 'I' for Inactive)
REMARK    1  A    between atoms: O2_2  and  C8_13 
REMARK    2  A    between atoms: O3_3  and  C9_14 
REMARK    3  A    between atoms: O4_4  and  C14_19 
REMARK    4  A    between atoms: O5_5  and  C15_20 
REMARK    5  A    between atoms: C1_6  and  C2_7 
REMARK    6  A    between atoms: C1_6  and  C3_8 
REMARK    7  A    between atoms: C2_7  and  C4_9 
REMARK    8  A    between atoms: C4_9  and  C5_10 
ROOT
ATOM      1  C5  UNK     1      40.490  -0.809   9.139  1.00  0.00     0.076 A 
ATOM      2  C8  UNK     1      40.766  -2.051   8.566  1.00  0.00     0.085 A 
ATOM      3  C9  UNK     1      39.471  -0.012   8.618  1.00  0.00     0.085 A 
ATOM      4  C10 UNK     1      40.023  -2.495   7.473  1.00  0.00     0.074 A 
ATOM      5  C11 UNK     1      38.728  -0.456   7.525  1.00  0.00     0.074 A 
ATOM      6  C14 UNK     1      39.004  -1.698   6.952  1.00  0.00     0.071 A 
ENDROOT
BRANCH   1   7
ATOM      7  C4  UNK     1      41.267  -0.346  10.283  1.00  0.00     0.165 C 
ATOM      8  O1  UNK     1      40.988  -0.726  11.436  1.00  0.00    -0.292 OA
BRANCH   7   9
ATOM      9  C2  UNK     1      42.441   0.624  10.067  1.00  0.00     0.088 C 
BRANCH   9  10
ATOM     10  C1  UNK     1      43.779  -0.085   9.845  1.00  0.00     0.046 C 
BRANCH  10  11
ATOM     11  C3  UNK     1      44.684   0.704   8.936  1.00  0.00    -0.058 A 
ATOM     12  C6  UNK     1      44.156   1.310   7.806  1.00  0.00     0.010 A 
ATOM     13  C12 UNK     1      44.994   2.042   6.964  1.00  0.00     0.037 A 
ATOM     14  C15 UNK     1      46.353   2.157   7.261  1.00  0.00     0.065 A 
ATOM     15  C13 UNK     1      46.872   1.542   8.401  1.00  0.00     0.037 A 
ATOM     16  C7  UNK     1      46.033   0.812   9.243  1.00  0.00     0.010 A 
BRANCH  14  17
ATOM     17  O5  UNK     1      47.170   2.871   6.441  1.00  0.00    -0.361 OA
ATOM     18  H14 UNK     1      47.060   3.818   6.633  1.00  0.00     0.217 HD
ENDBRANCH  14  17
ENDBRANCH  10  11
ENDBRANCH   9  10
ENDBRANCH   7   9
ENDBRANCH   1   7
BRANCH   2  19
ATOM     19  O2  UNK     1      41.757  -2.846   9.060  1.00  0.00    -0.360 OA
ATOM     20  H11 UNK     1      41.526  -3.783   8.959  1.00  0.00     0.217 HD
ENDBRANCH   2  19
BRANCH   3  21
ATOM     21  O3  UNK     1      39.185   1.205   9.163  1.00  0.00    -0.360 OA
ATOM     22  H12 UNK     1      38.240   1.236   9.394  1.00  0.00     0.217 HD
ENDBRANCH   3  21
BRANCH   6  23
ATOM     23  O4  UNK     1      38.279  -2.130   5.885  1.00  0.00    -0.361 OA
ATOM     24  H13 UNK     1      37.427  -1.661   5.871  1.00  0.00     0.217 HD
ENDBRANCH   6  23
TORSDOF 8
ENDMDL
MODEL 6
REMARK VINA RESULT:      -5.6      1.495      6.066
REMARK  8 active torsions:
REMARK  status: ('A' for Active; 'I' for Inactive)
REMARK    1  A    between atoms: O2_2  and  C8_13 
REMARK    2  A    between atoms: O3_3  and  C9_14 
REMARK    3  A    between atoms: O4_4  and  C14_19 
REMARK    4  A    between atoms: O5_5  and  C15_20 
REMARK    5  A    between atoms: C1_6  and  C2_7 
REMARK    6  A    between atoms: C1_6  and  C3_8 
REMARK    7  A    between atoms: C2_7  and  C4_9 
REMARK    8  A    between atoms: C4_9  and  C5_10 
ROOT
ATOM      1  C5  UNK     1      44.298   0.710   9.004  1.00  0.00     0.076 A 
ATOM      2  C8  UNK     1      44.005   1.049   7.683  1.00  0.00     0.085 A 
ATOM      3  C9  UNK     1      45.537   1.046   9.551  1.00  0.00     0.085 A 
ATOM      4  C10 UNK     1      44.949   1.723   6.909  1.00  0.00     0.074 A 
ATOM      5  C11 UNK     1      46.481   1.721   8.778  1.00  0.00     0.074 A 
ATOM      6  C14 UNK     1      46.187   2.060   7.456  1.00  0.00     0.071 A 
ENDROOT
BRANCH   1   7
ATOM      7  C4  UNK     1      43.310   0.005   9.812  1.00  0.00     0.165 C 
ATOM      8  O1  UNK     1      43.172  -1.229   9.713  1.00  0.00    -0.292 OA
BRANCH   7   9
ATOM      9  C2  UNK     1      42.426   0.791  10.796  1.00  0.00     0.088 C 
BRANCH   9  10
ATOM     10  C1  UNK     1      40.959   0.357  10.768  1.00  0.00     0.046 C 
BRANCH  10  11
ATOM     11  C3  UNK     1      40.286   0.751   9.478  1.00  0.00    -0.058 A 
ATOM     12  C6  UNK     1      39.711  -0.229   8.683  1.00  0.00     0.010 A 
ATOM     13  C12 UNK     1      39.088   0.135   7.489  1.00  0.00     0.037 A 
ATOM     14  C15 UNK     1      39.050   1.476   7.102  1.00  0.00     0.065 A 
ATOM     15  C13 UNK     1      39.634   2.451   7.911  1.00  0.00     0.037 A 
ATOM     16  C7  UNK     1      40.256   2.087   9.105  1.00  0.00     0.010 A 
BRANCH  14  17
ATOM     17  O5  UNK     1      38.442   1.831   5.939  1.00  0.00    -0.361 OA
ATOM     18  H14 UNK     1      37.767   2.505   6.128  1.00  0.00     0.217 HD
ENDBRANCH  14  17
ENDBRANCH  10  11
ENDBRANCH   9  10
ENDBRANCH   7   9
ENDBRANCH   1   7
BRANCH   2  19
ATOM     19  O2  UNK     1      42.801   0.730   7.128  1.00  0.00    -0.360 OA
ATOM     20  H11 UNK     1      42.400   1.508   6.709  1.00  0.00     0.217 HD
ENDBRANCH   2  19
BRANCH   3  21
ATOM     21  O3  UNK     1      45.844   0.725  10.840  1.00  0.00    -0.360 OA
ATOM     22  H12 UNK     1      46.668   0.208  10.851  1.00  0.00     0.217 HD
ENDBRANCH   3  21
BRANCH   6  23
ATOM     23  O4  UNK     1      47.109   2.717   6.701  1.00  0.00    -0.361 OA
ATOM     24  H13 UNK     1      47.084   2.364   5.795  1.00  0.00     0.217 HD
ENDBRANCH   6  23
TORSDOF 8
ENDMDL
MODEL 7
REMARK VINA RESULT:      -5.6      1.498      5.995
REMARK  8 active torsions:
REMARK  status: ('A' for Active; 'I' for Inactive)
REMARK    1  A    between atoms: O2_2  and  C8_13 
REMARK    2  A    between atoms: O3_3  and  C9_14 
REMARK    3  A    between atoms: O4_4  and  C14_19 
REMARK    4  A    between atoms: O5_5  and  C15_20 
REMARK    5  A    between atoms: C1_6  and  C2_7 
REMARK    6  A    between atoms: C1_6  and  C3_8 
REMARK    7  A    between atoms: C2_7  and  C4_9 
REMARK    8  A    between atoms: C4_9  and  C5_10 
ROOT
ATOM      1  C5  UNK     1      44.268   0.695   9.005  1.00  0.00     0.076 A 
ATOM      2  C8  UNK     1      45.506   1.036   9.550  1.00  0.00     0.085 A 
ATOM      3  C9  UNK     1      43.970   1.033   7.685  1.00  0.00     0.085 A 
ATOM      4  C10 UNK     1      46.446   1.714   8.774  1.00  0.00     0.074 A 
ATOM      5  C11 UNK     1      44.910   1.711   6.909  1.00  0.00     0.074 A 
ATOM      6  C14 UNK     1      46.149   2.052   7.454  1.00  0.00     0.071 A 
ENDROOT
BRANCH   1   7
ATOM      7  C4  UNK     1      43.286  -0.015   9.817  1.00  0.00     0.165 C 
ATOM      8  O1  UNK     1      43.150  -1.249   9.713  1.00  0.00    -0.292 OA
BRANCH   7   9
ATOM      9  C2  UNK     1      42.407   0.765  10.809  1.00  0.00     0.088 C 
BRANCH   9  10
ATOM     10  C1  UNK     1      40.937   0.340  10.777  1.00  0.00     0.046 C 
BRANCH  10  11
ATOM     11  C3  UNK     1      40.270   0.739   9.486  1.00  0.00    -0.058 A 
ATOM     12  C6  UNK     1      39.687  -0.234   8.690  1.00  0.00     0.010 A 
ATOM     13  C12 UNK     1      39.069   0.136   7.495  1.00  0.00     0.037 A 
ATOM     14  C15 UNK     1      39.042   1.477   7.110  1.00  0.00     0.065 A 
ATOM     15  C13 UNK     1      39.633   2.447   7.920  1.00  0.00     0.037 A 
ATOM     16  C7  UNK     1      40.250   2.076   9.115  1.00  0.00     0.010 A 
BRANCH  14  17
ATOM     17  O5  UNK     1      38.438   1.838   5.946  1.00  0.00    -0.361 OA
ATOM     18  H14 UNK     1      37.771   1.170   5.716  1.00  0.00     0.217 HD
ENDBRANCH  14  17
ENDBRANCH  10  11
ENDBRANCH   9  10
ENDBRANCH   7   9
ENDBRANCH   1   7
BRANCH   2  19
ATOM     19  O2  UNK     1      45.818   0.716  10.837  1.00  0.00    -0.360 OA
ATOM     20  H11 UNK     1      45.014   0.553  11.355  1.00  0.00     0.217 HD
ENDBRANCH   2  19
BRANCH   3  21
ATOM     21  O3  UNK     1      42.766   0.708   7.133  1.00  0.00    -0.360 OA
ATOM     22  H12 UNK     1      42.898   0.476   6.198  1.00  0.00     0.217 HD
ENDBRANCH   3  21
BRANCH   6  23
ATOM     23  O4  UNK     1      47.065   2.715   6.697  1.00  0.00    -0.361 OA
ATOM     24  H13 UNK     1      47.882   2.188   6.658  1.00  0.00     0.217 HD
ENDBRANCH   6  23
TORSDOF 8
ENDMDL
MODEL 8
REMARK VINA RESULT:      -5.6      4.377      6.450
REMARK  8 active torsions:
REMARK  status: ('A' for Active; 'I' for Inactive)
REMARK    1  A    between atoms: O2_2  and  C8_13 
REMARK    2  A    between atoms: O3_3  and  C9_14 
REMARK    3  A    between atoms: O4_4  and  C14_19 
REMARK    4  A    between atoms: O5_5  and  C15_20 
REMARK    5  A    between atoms: C1_6  and  C2_7 
REMARK    6  A    between atoms: C1_6  and  C3_8 
REMARK    7  A    between atoms: C2_7  and  C4_9 
REMARK    8  A    between atoms: C4_9  and  C5_10 
ROOT
ATOM      1  C5  UNK     1      39.920  -2.209   8.953  1.00  0.00     0.076 A 
ATOM      2  C8  UNK     1      39.166  -2.954   9.860  1.00  0.00     0.085 A 
ATOM      3  C9  UNK     1      41.110  -1.608   9.364  1.00  0.00     0.085 A 
ATOM      4  C10 UNK     1      39.600  -3.096  11.177  1.00  0.00     0.074 A 
ATOM      5  C11 UNK     1      41.545  -1.750  10.681  1.00  0.00     0.074 A 
ATOM      6  C14 UNK     1      40.790  -2.495  11.589  1.00  0.00     0.071 A 
ENDROOT
BRANCH   1   7
ATOM      7  C4  UNK     1      39.465  -2.061   7.575  1.00  0.00     0.165 C 
ATOM      8  O1  UNK     1      39.608  -2.989   6.756  1.00  0.00    -0.292 OA
BRANCH   7   9
ATOM      9  C2  UNK     1      38.804  -0.747   7.125  1.00  0.00     0.088 C 
BRANCH   9  10
ATOM     10  C1  UNK     1      37.997  -0.066   8.233  1.00  0.00     0.046 C 
BRANCH  10  11
ATOM     11  C3  UNK     1      38.683   1.177   8.738  1.00  0.00    -0.058 A 
ATOM     12  C6  UNK     1      38.380   1.656  10.003  1.00  0.00     0.010 A 
ATOM     13  C12 UNK     1      39.016   2.807  10.471  1.00  0.00     0.037 A 
ATOM     14  C15 UNK     1      39.946   3.466   9.666  1.00  0.00     0.065 A 
ATOM     15  C13 UNK     1      40.242   2.973   8.395  1.00  0.00     0.037 A 
ATOM     16  C7  UNK     1      39.607   1.822   7.928  1.00  0.00     0.010 A 
BRANCH  14  17
ATOM     17  O5  UNK     1      40.566   4.587  10.123  1.00  0.00    -0.361 OA
ATOM     18  H14 UNK     1      39.902   5.178  10.516  1.00  0.00     0.217 HD
ENDBRANCH  14  17
ENDBRANCH  10  11
ENDBRANCH   9  10
ENDBRANCH   7   9
ENDBRANCH   1   7
BRANCH   2  19
ATOM     19  O2  UNK     1      38.000  -3.550   9.479  1.00  0.00    -0.360 OA
ATOM     20  H11 UNK     1      38.163  -4.457   9.174  1.00  0.00     0.217 HD
ENDBRANCH   2  19
BRANCH   3  21
ATOM     21  O3  UNK     1      41.863  -0.877   8.494  1.00  0.00    -0.360 OA
ATOM     22  H12 UNK     1      42.804  -1.065   8.651  1.00  0.00     0.217 HD
ENDBRANCH   3  21
BRANCH   6  23
ATOM     23  O4  UNK     1      41.214  -2.633  12.874  1.00  0.00    -0.361 OA
ATOM     24  H13 UNK     1      41.128  -1.777  13.328  1.00  0.00     0.217 HD
ENDBRANCH   6  23
TORSDOF 8
ENDMDL
MODEL 9
REMARK VINA RESULT:      -5.6      4.384      6.239
REMARK  8 active torsions:
REMARK  status: ('A' for Active; 'I' for Inactive)
REMARK    1  A    between atoms: O2_2  and  C8_13 
REMARK    2  A    between atoms: O3_3  and  C9_14 
REMARK    3  A    between atoms: O4_4  and  C14_19 
REMARK    4  A    between atoms: O5_5  and  C15_20 
REMARK    5  A    between atoms: C1_6  and  C2_7 
REMARK    6  A    between atoms: C1_6  and  C3_8 
REMARK    7  A    between atoms: C2_7  and  C4_9 
REMARK    8  A    between atoms: C4_9  and  C5_10 
ROOT
ATOM      1  C5  UNK     1      39.916  -2.206   8.943  1.00  0.00     0.076 A 
ATOM      2  C8  UNK     1      41.100  -1.596   9.358  1.00  0.00     0.085 A 
ATOM      3  C9  UNK     1      39.164  -2.956   9.848  1.00  0.00     0.085 A 
ATOM      4  C10 UNK     1      41.532  -1.736  10.677  1.00  0.00     0.074 A 
ATOM      5  C11 UNK     1      39.595  -3.096  11.166  1.00  0.00     0.074 A 
ATOM      6  C14 UNK     1      40.780  -2.486  11.581  1.00  0.00     0.071 A 
ENDROOT
BRANCH   1   7
ATOM      7  C4  UNK     1      39.465  -2.059   7.564  1.00  0.00     0.165 C 
ATOM      8  O1  UNK     1      39.621  -2.983   6.743  1.00  0.00    -0.292 OA
BRANCH   7   9
ATOM      9  C2  UNK     1      38.793  -0.751   7.115  1.00  0.00     0.088 C 
BRANCH   9  10
ATOM     10  C1  UNK     1      37.984  -0.075   8.224  1.00  0.00     0.046 C 
BRANCH  10  11
ATOM     11  C3  UNK     1      38.669   1.166   8.736  1.00  0.00    -0.058 A 
ATOM     12  C6  UNK     1      39.584   1.823   7.927  1.00  0.00     0.010 A 
ATOM     13  C12 UNK     1      40.217   2.972   8.401  1.00  0.00     0.037 A 
ATOM     14  C15 UNK     1      39.929   3.450   9.680  1.00  0.00     0.065 A 
ATOM     15  C13 UNK     1      39.007   2.779  10.484  1.00  0.00     0.037 A 
ATOM     16  C7  UNK     1      38.373   1.631  10.009  1.00  0.00     0.010 A 
BRANCH  14  17
ATOM     17  O5  UNK     1      40.546   4.571  10.142  1.00  0.00    -0.361 OA
ATOM     18  H14 UNK     1      39.962   5.335   9.997  1.00  0.00     0.217 HD
ENDBRANCH  14  17
ENDBRANCH  10  11
ENDBRANCH   9  10
ENDBRANCH   7   9
ENDBRANCH   1   7
BRANCH   2  19
ATOM     19  O2  UNK     1      41.850  -0.859   8.491  1.00  0.00    -0.360 OA
ATOM     20  H11 UNK     1      42.221  -0.080   8.936  1.00  0.00     0.217 HD
ENDBRANCH   2  19
BRANCH   3  21
ATOM     21  O3  UNK     1      38.004  -3.560   9.463  1.00  0.00    -0.360 OA
ATOM     22  H12 UNK     1      38.205  -4.241   8.798  1.00  0.00     0.217 HD
ENDBRANCH   3  21
BRANCH   6  23
ATOM     23  O4  UNK     1      41.201  -2.623  12.868  1.00  0.00    -0.361 OA
ATOM     24  H13 UNK     1      41.446  -3.552  13.022  1.00  0.00     0.217 HD
ENDBRANCH   6  23
TORSDOF 8
ENDMDL
MODEL 10
REMARK VINA RESULT:      -5.6      1.349      1.699
REMARK  8 active torsions:
REMARK  status: ('A' for Active; 'I' for Inactive)
REMARK    1  A    between atoms: O2_2  and  C8_13 
REMARK    2  A    between atoms: O3_3  and  C9_14 
REMARK    3  A    between atoms: O4_4  and  C14_19 
REMARK    4  A    between atoms: O5_5  and  C15_20 
REMARK    5  A    between atoms: C1_6  and  C2_7 
REMARK    6  A    between atoms: C1_6  and  C3_8 
REMARK    7  A    between atoms: C2_7  and  C4_9 
REMARK    8  A    between atoms: C4_9  and  C5_10 
ROOT
ATOM      1  C5  UNK     1      41.083  -0.514   8.656  1.00  0.00     0.076 A 
ATOM      2  C8  UNK     1      40.141   0.363   8.118  1.00  0.00     0.085 A 
ATOM      3  C9  UNK     1      40.907  -1.892   8.524  1.00  0.00     0.085 A 
ATOM      4  C10 UNK     1      39.024  -0.137   7.449  1.00  0.00     0.074 A 
ATOM      5  C11 UNK     1      39.791  -2.392   7.855  1.00  0.00     0.074 A 
ATOM      6  C14 UNK     1      38.849  -1.515   7.317  1.00  0.00     0.071 A 
ENDROOT
BRANCH   1   7
ATOM      7  C4  UNK     1      42.251   0.010   9.355  1.00  0.00     0.165 C 
ATOM      8  O1  UNK     1      42.318  -0.032  10.599  1.00  0.00    -0.292 OA
BRANCH   7   9
ATOM      9  C2  UNK     1      43.411   0.623   8.553  1.00  0.00     0.088 C 
BRANCH   9  10
ATOM     10  C1  UNK     1      44.734   0.638   9.320  1.00  0.00     0.046 C 
BRANCH  10  11
ATOM     11  C3  UNK     1      45.848   1.237   8.499  1.00  0.00    -0.058 A 
ATOM     12  C6  UNK     1      47.165   0.993   8.856  1.00  0.00     0.010 A 
ATOM     13  C12 UNK     1      48.195   1.547   8.096  1.00  0.00     0.037 A 
ATOM     14  C15 UNK     1      47.896   2.341   6.988  1.00  0.00     0.065 A 
ATOM     15  C13 UNK     1      46.566   2.579   6.640  1.00  0.00     0.037 A 
ATOM     16  C7  UNK     1      45.536   2.024   7.400  1.00  0.00     0.010 A 
BRANCH  14  17
ATOM     17  O5  UNK     1      48.900   2.880   6.246  1.00  0.00    -0.361 OA
ATOM     18  H14 UNK     1      48.560   3.657   5.772  1.00  0.00     0.217 HD
ENDBRANCH  14  17
ENDBRANCH  10  11
ENDBRANCH   9  10
ENDBRANCH   7   9
ENDBRANCH   1   7
BRANCH   2  19
ATOM     19  O2  UNK     1      40.293   1.713   8.234  1.00  0.00    -0.360 OA
ATOM     20  H11 UNK     1      39.926   2.027   9.076  1.00  0.00     0.217 HD
ENDBRANCH   2  19
BRANCH   3  21
ATOM     21  O3  UNK     1      41.816  -2.766   9.042  1.00  0.00    -0.360 OA
ATOM     22  H12 UNK     1      42.400  -3.077   8.329  1.00  0.00     0.217 HD
ENDBRANCH   3  21
BRANCH   6  23
ATOM     23  O4  UNK     1      37.759  -2.003   6.665  1.00  0.00    -0.361 OA
ATOM     24  H13 UNK     1      36.957  -1.735   7.146  1.00  0.00     0.217 HD
ENDBRANCH   6  23
TORSDOF 8
ENDMDL
MODEL 11
REMARK VINA RESULT:      -5.6      1.352      2.345
REMARK  8 active torsions:
REMARK  status: ('A' for Active; 'I' for Inactive)
REMARK    1  A    between atoms: O2_2  and  C8_13 
REMARK    2  A    between atoms: O3_3  and  C9_14 
REMARK    3  A    between atoms: O4_4  and  C14_19 
REMARK    4  A    between atoms: O5_5  and  C15_20 
REMARK    5  A    between atoms: C1_6  and  C2_7 
REMARK    6  A    between atoms: C1_6  and  C3_8 
REMARK    7  A    between atoms: C2_7  and  C4_9 
REMARK    8  A    between atoms: C4_9  and  C5_10 
ROOT
ATOM      1  C5  UNK     1      41.064  -0.536   8.657  1.00  0.00     0.076 A 
ATOM      2  C8  UNK     1      40.898  -1.913   8.518  1.00  0.00     0.085 A 
ATOM      3  C9  UNK     1      40.120   0.338   8.118  1.00  0.00     0.085 A 
ATOM      4  C10 UNK     1      39.788  -2.417   7.840  1.00  0.00     0.074 A 
ATOM      5  C11 UNK     1      39.010  -0.165   7.440  1.00  0.00     0.074 A 
ATOM      6  C14 UNK     1      38.844  -1.544   7.300  1.00  0.00     0.071 A 
ENDROOT
BRANCH   1   7
ATOM      7  C4  UNK     1      42.225  -0.010   9.367  1.00  0.00     0.165 C 
ATOM      8  O1  UNK     1      42.284  -0.057  10.611  1.00  0.00    -0.292 OA
BRANCH   7   9
ATOM      9  C2  UNK     1      43.388   0.613   8.575  1.00  0.00     0.088 C 
BRANCH   9  10
ATOM     10  C1  UNK     1      44.711   0.609   9.343  1.00  0.00     0.046 C 
BRANCH  10  11
ATOM     11  C3  UNK     1      45.830   1.205   8.528  1.00  0.00    -0.058 A 
ATOM     12  C6  UNK     1      47.145   0.941   8.878  1.00  0.00     0.010 A 
ATOM     13  C12 UNK     1      48.180   1.492   8.123  1.00  0.00     0.037 A 
ATOM     14  C15 UNK     1      47.888   2.304   7.026  1.00  0.00     0.065 A 
ATOM     15  C13 UNK     1      46.560   2.562   6.684  1.00  0.00     0.037 A 
ATOM     16  C7  UNK     1      45.526   2.010   7.439  1.00  0.00     0.010 A 
BRANCH  14  17
ATOM     17  O5  UNK     1      48.898   2.840   6.289  1.00  0.00    -0.361 OA
ATOM     18  H14 UNK     1      49.714   2.830   6.817  1.00  0.00     0.217 HD
ENDBRANCH  14  17
ENDBRANCH  10  11
ENDBRANCH   9  10
ENDBRANCH   7   9
ENDBRANCH   1   7
BRANCH   2  19
ATOM     19  O2  UNK     1      41.808  -2.786   9.037  1.00  0.00    -0.360 OA
ATOM     20  H11 UNK     1      42.059  -3.452   8.378  1.00  0.00     0.217 HD
ENDBRANCH   2  19
BRANCH   3  21
ATOM     21  O3  UNK     1      40.263   1.689   8.243  1.00  0.00    -0.360 OA
ATOM     22  H12 UNK     1      39.495   2.047   8.720  1.00  0.00     0.217 HD
ENDBRANCH   3  21
BRANCH   6  23
ATOM     23  O4  UNK     1      37.762  -2.034   6.638  1.00  0.00    -0.361 OA
ATOM     24  H13 UNK     1      36.983  -1.971   7.217  1.00  0.00     0.217 HD
ENDBRANCH   6  23
TORSDOF 8
ENDMDL
MODEL 12
REMARK VINA RESULT:      -5.6      5.447      8.845
REMARK  8 active torsions:
REMARK  status: ('A' for Active; 'I' for Inactive)
REMARK    1  A    between atoms: O2_2  and  C8_13 
REMARK    2  A    between atoms: O3_3  and  C9_14 
REMARK    3  A    between atoms: O4_4  and  C14_19 
REMARK    4  A    between atoms: O5_5  and  C15_20 
REMARK    5  A    between atoms: C1_6  and  C2_7 
REMARK    6  A    between atoms: C1_6  and  C3_8 
REMARK    7  A    between atoms: C2_7  and  C4_9 
REMARK    8  A    between atoms: C4_9  and  C5_10 
ROOT
ATOM      1  C5  UNK     1      37.868  -2.017   8.155  1.00  0.00     0.076 A 
ATOM      2  C8  UNK     1      38.796  -2.132   7.120  1.00  0.00     0.085 A 
ATOM      3  C9  UNK     1      38.284  -2.139   9.480  1.00  0.00     0.085 A 
ATOM      4  C10 UNK     1      40.139  -2.371   7.410  1.00  0.00     0.074 A 
ATOM      5  C11 UNK     1      39.626  -2.377   9.772  1.00  0.00     0.074 A 
ATOM      6  C14 UNK     1      40.555  -2.493   8.736  1.00  0.00     0.071 A 
ENDROOT
BRANCH   1   7
ATOM      7  C4  UNK     1      36.463  -1.767   7.850  1.00  0.00     0.165 C 
ATOM      8  O1  UNK     1      36.063  -0.613   7.603  1.00  0.00    -0.292 OA
BRANCH   7   9
ATOM      9  C2  UNK     1      35.465  -2.936   7.834  1.00  0.00     0.088 C 
BRANCH   9  10
ATOM     10  C1  UNK     1      35.316  -3.587   6.457  1.00  0.00     0.046 C 
BRANCH  10  11
ATOM     11  C3  UNK     1      36.267  -4.743   6.282  1.00  0.00    -0.058 A 
ATOM     12  C6  UNK     1      36.646  -5.488   7.388  1.00  0.00     0.010 A 
ATOM     13  C12 UNK     1      37.526  -6.558   7.225  1.00  0.00     0.037 A 
ATOM     14  C15 UNK     1      38.019  -6.869   5.957  1.00  0.00     0.065 A 
ATOM     15  C13 UNK     1      37.631  -6.111   4.852  1.00  0.00     0.037 A 
ATOM     16  C7  UNK     1      36.750  -5.042   5.016  1.00  0.00     0.010 A 
BRANCH  14  17
ATOM     17  O5  UNK     1      38.876  -7.914   5.798  1.00  0.00    -0.361 OA
ATOM     18  H14 UNK     1      38.361  -8.729   5.675  1.00  0.00     0.217 HD
ENDBRANCH  14  17
ENDBRANCH  10  11
ENDBRANCH   9  10
ENDBRANCH   7   9
ENDBRANCH   1   7
BRANCH   2  19
ATOM     19  O2  UNK     1      38.411  -2.016   5.817  1.00  0.00    -0.360 OA
ATOM     20  H11 UNK     1      37.458  -2.173   5.726  1.00  0.00     0.217 HD
ENDBRANCH   2  19
BRANCH   3  21
ATOM     21  O3  UNK     1      37.393  -2.028  10.507  1.00  0.00    -0.360 OA
ATOM     22  H12 UNK     1      36.712  -2.716  10.413  1.00  0.00     0.217 HD
ENDBRANCH   3  21
BRANCH   6  23
ATOM     23  O4  UNK     1      41.865  -2.726   9.020  1.00  0.00    -0.361 OA
ATOM     24  H13 UNK     1      42.258  -1.913   9.380  1.00  0.00     0.217 HD
ENDBRANCH   6  23
TORSDOF 8
ENDMDL
MODEL 13
REMARK VINA RESULT:      -5.5      1.367      6.441
REMARK  8 active torsions:
REMARK  status: ('A' for Active; 'I' for Inactive)
REMARK    1  A    between atoms: O2_2  and  C8_13 
REMARK    2  A    between atoms: O3_3  and  C9_14 
REMARK    3  A    between atoms: O4_4  and  C14_19 
REMARK    4  A    between atoms: O5_5  and  C15_20 
REMARK    5  A    between atoms: C1_6  and  C2_7 
REMARK    6  A    between atoms: C1_6  and  C3_8 
REMARK    7  A    between atoms: C2_7  and  C4_9 
REMARK    8  A    between atoms: C4_9  and  C5_10 
ROOT
ATOM      1  C5  UNK     1      45.503   1.406   8.781  1.00  0.00     0.076 A 
ATOM      2  C8  UNK     1      45.232   2.198   7.665  1.00  0.00     0.085 A 
ATOM      3  C9  UNK     1      46.803   0.958   9.018  1.00  0.00     0.085 A 
ATOM      4  C10 UNK     1      46.258   2.540   6.786  1.00  0.00     0.074 A 
ATOM      5  C11 UNK     1      47.830   1.300   8.139  1.00  0.00     0.074 A 
ATOM      6  C14 UNK     1      47.558   2.091   7.022  1.00  0.00     0.071 A 
ENDROOT
BRANCH   1   7
ATOM      7  C4  UNK     1      44.429   1.049   9.701  1.00  0.00     0.165 C 
ATOM      8  O1  UNK     1      44.320   1.621  10.803  1.00  0.00    -0.292 OA
BRANCH   7   9
ATOM      9  C2  UNK     1      43.421  -0.044   9.311  1.00  0.00     0.088 C 
BRANCH   9  10
ATOM     10  C1  UNK     1      42.037   0.160   9.932  1.00  0.00     0.046 C 
BRANCH  10  11
ATOM     11  C3  UNK     1      41.018   0.568   8.900  1.00  0.00    -0.058 A 
ATOM     12  C6  UNK     1      40.885   1.907   8.565  1.00  0.00     0.010 A 
ATOM     13  C12 UNK     1      39.941   2.284   7.610  1.00  0.00     0.037 A 
ATOM     14  C15 UNK     1      39.140   1.318   7.001  1.00  0.00     0.065 A 
ATOM     15  C13 UNK     1      39.283  -0.026   7.347  1.00  0.00     0.037 A 
ATOM     16  C7  UNK     1      40.228  -0.403   8.302  1.00  0.00     0.010 A 
BRANCH  14  17
ATOM     17  O5  UNK     1      38.221   1.686   6.068  1.00  0.00    -0.361 OA
ATOM     18  H14 UNK     1      38.672   1.824   5.218  1.00  0.00     0.217 HD
ENDBRANCH  14  17
ENDBRANCH  10  11
ENDBRANCH   9  10
ENDBRANCH   7   9
ENDBRANCH   1   7
BRANCH   2  19
ATOM     19  O2  UNK     1      43.969   2.647   7.415  1.00  0.00    -0.360 OA
ATOM     20  H11 UNK     1      43.982   3.354   6.750  1.00  0.00     0.217 HD
ENDBRANCH   2  19
BRANCH   3  21
ATOM     21  O3  UNK     1      47.091   0.184  10.103  1.00  0.00    -0.360 OA
ATOM     22  H12 UNK     1      46.376   0.275  10.757  1.00  0.00     0.217 HD
ENDBRANCH   3  21
BRANCH   6  23
ATOM     23  O4  UNK     1      48.560   2.424   6.164  1.00  0.00    -0.361 OA
ATOM     24  H13 UNK     1      48.278   3.187   5.631  1.00  0.00     0.217 HD
ENDBRANCH   6  23
TORSDOF 8
ENDMDL
MODEL 14
REMARK VINA RESULT:      -5.5      5.441      8.901
REMARK  8 active torsions:
REMARK  status: ('A' for Active; 'I' for Inactive)
REMARK    1  A    between atoms: O2_2  and  C8_13 
REMARK    2  A    between atoms: O3_3  and  C9_14 
REMARK    3  A    between atoms: O4_4  and  C14_19 
REMARK    4  A    between atoms: O5_5  and  C15_20 
REMARK    5  A    between atoms: C1_6  and  C2_7 
REMARK    6  A    between atoms: C1_6  and  C3_8 
REMARK    7  A    between atoms: C2_7  and  C4_9 
REMARK    8  A    between atoms: C4_9  and  C5_10 
ROOT
ATOM      1  C5  UNK     1      37.865  -1.990   8.163  1.00  0.00     0.076 A 
ATOM      2  C8  UNK     1      38.272  -2.094   9.493  1.00  0.00     0.085 A 
ATOM      3  C9  UNK     1      38.798  -2.128   7.135  1.00  0.00     0.085 A 
ATOM      4  C10 UNK     1      39.612  -2.335   9.795  1.00  0.00     0.074 A 
ATOM      5  C11 UNK     1      40.137  -2.369   7.437  1.00  0.00     0.074 A 
ATOM      6  C14 UNK     1      40.545  -2.473   8.767  1.00  0.00     0.071 A 
ENDROOT
BRANCH   1   7
ATOM      7  C4  UNK     1      36.463  -1.738   7.848  1.00  0.00     0.165 C 
ATOM      8  O1  UNK     1      36.069  -0.585   7.584  1.00  0.00    -0.292 OA
BRANCH   7   9
ATOM      9  C2  UNK     1      35.459  -2.903   7.843  1.00  0.00     0.088 C 
BRANCH   9  10
ATOM     10  C1  UNK     1      35.303  -3.561   6.471  1.00  0.00     0.046 C 
BRANCH  10  11
ATOM     11  C3  UNK     1      36.251  -4.720   6.298  1.00  0.00    -0.058 A 
ATOM     12  C6  UNK     1      36.715  -5.038   5.032  1.00  0.00     0.010 A 
ATOM     13  C12 UNK     1      37.593  -6.111   4.872  1.00  0.00     0.037 A 
ATOM     14  C15 UNK     1      37.994  -6.855   5.982  1.00  0.00     0.065 A 
ATOM     15  C13 UNK     1      37.518  -6.525   7.252  1.00  0.00     0.037 A 
ATOM     16  C7  UNK     1      36.642  -5.452   7.411  1.00  0.00     0.010 A 
BRANCH  14  17
ATOM     17  O5  UNK     1      38.850  -7.900   5.827  1.00  0.00    -0.361 OA
ATOM     18  H14 UNK     1      38.433  -8.568   5.256  1.00  0.00     0.217 HD
ENDBRANCH  14  17
ENDBRANCH  10  11
ENDBRANCH   9  10
ENDBRANCH   7   9
ENDBRANCH   1   7
BRANCH   2  19
ATOM     19  O2  UNK     1      37.377  -1.963  10.513  1.00  0.00    -0.360 OA
ATOM     20  H11 UNK     1      37.567  -2.600  11.219  1.00  0.00     0.217 HD
ENDBRANCH   2  19
BRANCH   3  21
ATOM     21  O3  UNK     1      38.420  -2.030   5.828  1.00  0.00    -0.360 OA
ATOM     22  H12 UNK     1      38.821  -2.761   5.326  1.00  0.00     0.217 HD
ENDBRANCH   3  21
BRANCH   6  23
ATOM     23  O4  UNK     1      41.853  -2.708   9.062  1.00  0.00    -0.361 OA
ATOM     24  H13 UNK     1      42.266  -3.171   8.312  1.00  0.00     0.217 HD
ENDBRANCH   6  23
TORSDOF 8
ENDMDL
MODEL 15
REMARK VINA RESULT:      -5.4      1.589      2.633
REMARK  8 active torsions:
REMARK  status: ('A' for Active; 'I' for Inactive)
REMARK    1  A    between atoms: O2_2  and  C8_13 
REMARK    2  A    between atoms: O3_3  and  C9_14 
REMARK    3  A    between atoms: O4_4  and  C14_19 
REMARK    4  A    between atoms: O5_5  and  C15_20 
REMARK    5  A    between atoms: C1_6  and  C2_7 
REMARK    6  A    between atoms: C1_6  and  C3_8 
REMARK    7  A    between atoms: C2_7  and  C4_9 
REMARK    8  A    between atoms: C4_9  and  C5_10 
ROOT
ATOM      1  C5  UNK     1      40.997   0.938   8.444  1.00  0.00     0.076 A 
ATOM      2  C8  UNK     1      41.171  -0.445   8.460  1.00  0.00     0.085 A 
ATOM      3  C9  UNK     1      39.848   1.490   7.878  1.00  0.00     0.085 A 
ATOM      4  C10 UNK     1      40.196  -1.278   7.912  1.00  0.00     0.074 A 
ATOM      5  C11 UNK     1      38.872   0.658   7.330  1.00  0.00     0.074 A 
ATOM      6  C14 UNK     1      39.046  -0.726   7.346  1.00  0.00     0.071 A 
ENDROOT
BRANCH   1   7
ATOM      7  C4  UNK     1      42.018   1.808   9.018  1.00  0.00     0.165 C 
ATOM      8  O1  UNK     1      42.121   1.935  10.254  1.00  0.00    -0.292 OA
BRANCH   7   9
ATOM      9  C2  UNK     1      42.975   2.578   8.094  1.00  0.00     0.088 C 
BRANCH   9  10
ATOM     10  C1  UNK     1      43.838   1.665   7.221  1.00  0.00     0.046 C 
BRANCH  10  11
ATOM     11  C3  UNK     1      45.211   1.466   7.811  1.00  0.00    -0.058 A 
ATOM     12  C6  UNK     1      46.319   1.961   7.141  1.00  0.00     0.010 A 
ATOM     13  C12 UNK     1      47.590   1.777   7.687  1.00  0.00     0.037 A 
ATOM     14  C15 UNK     1      47.737   1.098   8.897  1.00  0.00     0.065 A 
ATOM     15  C13 UNK     1      46.614   0.605   9.561  1.00  0.00     0.037 A 
ATOM     16  C7  UNK     1      45.344   0.789   9.015  1.00  0.00     0.010 A 
BRANCH  14  17
ATOM     17  O5  UNK     1      48.976   0.920   9.431  1.00  0.00    -0.361 OA
ATOM     18  H14 UNK     1      48.884   0.670  10.366  1.00  0.00     0.217 HD
ENDBRANCH  14  17
ENDBRANCH  10  11
ENDBRANCH   9  10
ENDBRANCH   7   9
ENDBRANCH   1   7
BRANCH   2  19
ATOM     19  O2  UNK     1      42.287  -1.006   9.008  1.00  0.00    -0.360 OA
ATOM     20  H11 UNK     1      43.067  -0.455   8.835  1.00  0.00     0.217 HD
ENDBRANCH   2  19
BRANCH   3  21
ATOM     21  O3  UNK     1      39.658   2.840   7.853  1.00  0.00    -0.360 OA
ATOM     22  H12 UNK     1      38.762   3.029   7.523  1.00  0.00     0.217 HD
ENDBRANCH   3  21
BRANCH   6  23
ATOM     23  O4  UNK     1      38.094  -1.538   6.810  1.00  0.00    -0.361 OA
ATOM     24  H13 UNK     1      37.331  -1.569   7.412  1.00  0.00     0.217 HD
ENDBRANCH   6  23
TORSDOF 8
ENDMDL
MODEL 16
REMARK VINA RESULT:      -5.4      3.580      4.455
REMARK  8 active torsions:
REMARK  status: ('A' for Active; 'I' for Inactive)
REMARK    1  A    between atoms: O2_2  and  C8_13 
REMARK    2  A    between atoms: O3_3  and  C9_14 
REMARK    3  A    between atoms: O4_4  and  C14_19 
REMARK    4  A    between atoms: O5_5  and  C15_20 
REMARK    5  A    between atoms: C1_6  and  C2_7 
REMARK    6  A    between atoms: C1_6  and  C3_8 
REMARK    7  A    between atoms: C2_7  and  C4_9 
REMARK    8  A    between atoms: C4_9  and  C5_10 
ROOT
ATOM      1  C5  UNK     1      39.986  -1.600   9.174  1.00  0.00     0.076 A 
ATOM      2  C8  UNK     1      39.735  -1.799   7.816  1.00  0.00     0.085 A 
ATOM      3  C9  UNK     1      39.103  -0.842   9.943  1.00  0.00     0.085 A 
ATOM      4  C10 UNK     1      38.601  -1.239   7.228  1.00  0.00     0.074 A 
ATOM      5  C11 UNK     1      37.969  -0.282   9.355  1.00  0.00     0.074 A 
ATOM      6  C14 UNK     1      37.718  -0.481   7.997  1.00  0.00     0.071 A 
ENDROOT
BRANCH   1   7
ATOM      7  C4  UNK     1      41.172  -2.186   9.788  1.00  0.00     0.165 C 
ATOM      8  O1  UNK     1      41.225  -3.408  10.029  1.00  0.00    -0.292 OA
BRANCH   7   9
ATOM      9  C2  UNK     1      42.370  -1.290  10.147  1.00  0.00     0.088 C 
BRANCH   9  10
ATOM     10  C1  UNK     1      42.738  -0.302   9.038  1.00  0.00     0.046 C 
BRANCH  10  11
ATOM     11  C3  UNK     1      42.110   1.050   9.265  1.00  0.00    -0.058 A 
ATOM     12  C6  UNK     1      42.281   1.685  10.486  1.00  0.00     0.010 A 
ATOM     13  C12 UNK     1      41.700   2.936  10.695  1.00  0.00     0.037 A 
ATOM     14  C15 UNK     1      40.952   3.536   9.681  1.00  0.00     0.065 A 
ATOM     15  C13 UNK     1      40.788   2.886   8.458  1.00  0.00     0.037 A 
ATOM     16  C7  UNK     1      41.370   1.636   8.249  1.00  0.00     0.010 A 
BRANCH  14  17
ATOM     17  O5  UNK     1      40.387   4.757   9.885  1.00  0.00    -0.361 OA
ATOM     18  H14 UNK     1      40.928   5.433   9.443  1.00  0.00     0.217 HD
ENDBRANCH  14  17
ENDBRANCH  10  11
ENDBRANCH   9  10
ENDBRANCH   7   9
ENDBRANCH   1   7
BRANCH   2  19
ATOM     19  O2  UNK     1      40.584  -2.536   7.046  1.00  0.00    -0.360 OA
ATOM     20  H11 UNK     1      40.540  -2.252   6.119  1.00  0.00     0.217 HD
ENDBRANCH   2  19
BRANCH   3  21
ATOM     21  O3  UNK     1      39.330  -0.636  11.272  1.00  0.00    -0.360 OA
ATOM     22  H12 UNK     1      39.389   0.320  11.440  1.00  0.00     0.217 HD
ENDBRANCH   3  21
BRANCH   6  23
ATOM     23  O4  UNK     1      36.612   0.066   7.423  1.00  0.00    -0.361 OA
ATOM     24  H13 UNK     1      36.889   0.764   6.805  1.00  0.00     0.217 HD
ENDBRANCH   6  23
TORSDOF 8
ENDMDL
MODEL 17
REMARK VINA RESULT:      -5.4      3.173      4.839
REMARK  8 active torsions:
REMARK  status: ('A' for Active; 'I' for Inactive)
REMARK    1  A    between atoms: O2_2  and  C8_13 
REMARK    2  A    between atoms: O3_3  and  C9_14 
REMARK    3  A    between atoms: O4_4  and  C14_19 
REMARK    4  A    between atoms: O5_5  and  C15_20 
REMARK    5  A    between atoms: C1_6  and  C2_7 
REMARK    6  A    between atoms: C1_6  and  C3_8 
REMARK    7  A    between atoms: C2_7  and  C4_9 
REMARK    8  A    between atoms: C4_9  and  C5_10 
ROOT
ATOM      1  C5  UNK     1      38.762  -1.090   8.365  1.00  0.00     0.076 A 
ATOM      2  C8  UNK     1      37.528  -1.580   7.935  1.00  0.00     0.085 A 
ATOM      3  C9  UNK     1      39.942  -1.633   7.858  1.00  0.00     0.085 A 
ATOM      4  C10 UNK     1      37.476  -2.614   7.000  1.00  0.00     0.074 A 
ATOM      5  C11 UNK     1      39.890  -2.666   6.923  1.00  0.00     0.074 A 
ATOM      6  C14 UNK     1      38.656  -3.157   6.494  1.00  0.00     0.071 A 
ENDROOT
BRANCH   1   7
ATOM      7  C4  UNK     1      38.815  -0.009   9.342  1.00  0.00     0.165 C 
ATOM      8  O1  UNK     1      39.191  -0.227  10.510  1.00  0.00    -0.292 OA
BRANCH   7   9
ATOM      9  C2  UNK     1      38.403   1.415   8.932  1.00  0.00     0.088 C 
BRANCH   9  10
ATOM     10  C1  UNK     1      39.240   1.979   7.782  1.00  0.00     0.046 C 
BRANCH  10  11
ATOM     11  C3  UNK     1      40.562   2.517   8.267  1.00  0.00    -0.058 A 
ATOM     12  C6  UNK     1      40.589   3.388   9.345  1.00  0.00     0.010 A 
ATOM     13  C12 UNK     1      41.813   3.886   9.794  1.00  0.00     0.037 A 
ATOM     14  C15 UNK     1      42.996   3.506   9.159  1.00  0.00     0.065 A 
ATOM     15  C13 UNK     1      42.954   2.629   8.075  1.00  0.00     0.037 A 
ATOM     16  C7  UNK     1      41.731   2.131   7.627  1.00  0.00     0.010 A 
BRANCH  14  17
ATOM     17  O5  UNK     1      44.189   3.990   9.598  1.00  0.00    -0.361 OA
ATOM     18  H14 UNK     1      44.028   4.775  10.149  1.00  0.00     0.217 HD
ENDBRANCH  14  17
ENDBRANCH  10  11
ENDBRANCH   9  10
ENDBRANCH   7   9
ENDBRANCH   1   7
BRANCH   2  19
ATOM     19  O2  UNK     1      36.362  -1.064   8.417  1.00  0.00    -0.360 OA
ATOM     20  H11 UNK     1      36.397  -0.983   9.383  1.00  0.00     0.217 HD
ENDBRANCH   2  19
BRANCH   3  21
ATOM     21  O3  UNK     1      41.158  -1.168   8.264  1.00  0.00    -0.360 OA
ATOM     22  H12 UNK     1      41.035  -0.328   8.739  1.00  0.00     0.217 HD
ENDBRANCH   3  21
BRANCH   6  23
ATOM     23  O4  UNK     1      38.606  -4.166   5.582  1.00  0.00    -0.361 OA
ATOM     24  H13 UNK     1      38.413  -4.999   6.045  1.00  0.00     0.217 HD
ENDBRANCH   6  23
TORSDOF 8
ENDMDL
MODEL 18
REMARK VINA RESULT:      -5.4      3.177      4.724
REMARK  8 active torsions:
REMARK  status: ('A' for Active; 'I' for Inactive)
REMARK    1  A    between atoms: O2_2  and  C8_13 
REMARK    2  A    between atoms: O3_3  and  C9_14 
REMARK    3  A    between atoms: O4_4  and  C14_19 
REMARK    4  A    between atoms: O5_5  and  C15_20 
REMARK    5  A    between atoms: C1_6  and  C2_7 
REMARK    6  A    between atoms: C1_6  and  C3_8 
REMARK    7  A    between atoms: C2_7  and  C4_9 
REMARK    8  A    between atoms: C4_9  and  C5_10 
ROOT
ATOM      1  C5  UNK     1      38.752  -1.099   8.348  1.00  0.00     0.076 A 
ATOM      2  C8  UNK     1      39.933  -1.647   7.847  1.00  0.00     0.085 A 
ATOM      3  C9  UNK     1      37.519  -1.592   7.922  1.00  0.00     0.085 A 
ATOM      4  C10 UNK     1      39.880  -2.687   6.919  1.00  0.00     0.074 A 
ATOM      5  C11 UNK     1      37.466  -2.632   6.995  1.00  0.00     0.074 A 
ATOM      6  C14 UNK     1      38.647  -3.180   6.493  1.00  0.00     0.071 A 
ENDROOT
BRANCH   1   7
ATOM      7  C4  UNK     1      38.808  -0.012   9.319  1.00  0.00     0.165 C 
ATOM      8  O1  UNK     1      39.185  -0.223  10.488  1.00  0.00    -0.292 OA
BRANCH   7   9
ATOM      9  C2  UNK     1      38.396   1.409   8.900  1.00  0.00     0.088 C 
BRANCH   9  10
ATOM     10  C1  UNK     1      39.247   1.974   7.760  1.00  0.00     0.046 C 
BRANCH  10  11
ATOM     11  C3  UNK     1      40.561   2.516   8.262  1.00  0.00    -0.058 A 
ATOM     12  C6  UNK     1      40.572   3.388   9.340  1.00  0.00     0.010 A 
ATOM     13  C12 UNK     1      41.788   3.889   9.804  1.00  0.00     0.037 A 
ATOM     14  C15 UNK     1      42.980   3.514   9.183  1.00  0.00     0.065 A 
ATOM     15  C13 UNK     1      42.955   2.636   8.099  1.00  0.00     0.037 A 
ATOM     16  C7  UNK     1      41.739   2.134   7.636  1.00  0.00     0.010 A 
BRANCH  14  17
ATOM     17  O5  UNK     1      44.166   4.001   9.637  1.00  0.00    -0.361 OA
ATOM     18  H14 UNK     1      44.891   3.559   9.164  1.00  0.00     0.217 HD
ENDBRANCH  14  17
ENDBRANCH  10  11
ENDBRANCH   9  10
ENDBRANCH   7   9
ENDBRANCH   1   7
BRANCH   2  19
ATOM     19  O2  UNK     1      41.149  -1.181   8.250  1.00  0.00    -0.360 OA
ATOM     20  H11 UNK     1      41.100  -0.835   9.156  1.00  0.00     0.217 HD
ENDBRANCH   2  19
BRANCH   3  21
ATOM     21  O3  UNK     1      36.353  -1.072   8.401  1.00  0.00    -0.360 OA
ATOM     22  H12 UNK     1      36.468  -0.117   8.549  1.00  0.00     0.217 HD
ENDBRANCH   3  21
BRANCH   6  23
ATOM     23  O4  UNK     1      38.595  -4.194   5.587  1.00  0.00    -0.361 OA
ATOM     24  H13 UNK     1      39.466  -4.625   5.547  1.00  0.00     0.217 HD
ENDBRANCH   6  23
TORSDOF 8
ENDMDL
MODEL 19
REMARK VINA RESULT:      -5.4      2.225      3.978
REMARK  8 active torsions:
REMARK  status: ('A' for Active; 'I' for Inactive)
REMARK    1  A    between atoms: O2_2  and  C8_13 
REMARK    2  A    between atoms: O3_3  and  C9_14 
REMARK    3  A    between atoms: O4_4  and  C14_19 
REMARK    4  A    between atoms: O5_5  and  C15_20 
REMARK    5  A    between atoms: C1_6  and  C2_7 
REMARK    6  A    between atoms: C1_6  and  C3_8 
REMARK    7  A    between atoms: C2_7  and  C4_9 
REMARK    8  A    between atoms: C4_9  and  C5_10 
ROOT
ATOM      1  C5  UNK     1      39.916  -0.232   9.327  1.00  0.00     0.076 A 
ATOM      2  C8  UNK     1      40.387  -0.270  10.639  1.00  0.00     0.085 A 
ATOM      3  C9  UNK     1      40.170  -1.298   8.464  1.00  0.00     0.085 A 
ATOM      4  C10 UNK     1      41.112  -1.373  11.089  1.00  0.00     0.074 A 
ATOM      5  C11 UNK     1      40.894  -2.402   8.913  1.00  0.00     0.074 A 
ATOM      6  C14 UNK     1      41.366  -2.439  10.226  1.00  0.00     0.071 A 
ENDROOT
BRANCH   1   7
ATOM      7  C4  UNK     1      39.158   0.923   8.858  1.00  0.00     0.165 C 
ATOM      8  O1  UNK     1      37.955   1.055   9.154  1.00  0.00    -0.292 OA
BRANCH   7   9
ATOM      9  C2  UNK     1      39.847   1.988   7.987  1.00  0.00     0.088 C 
BRANCH   9  10
ATOM     10  C1  UNK     1      40.839   2.854   8.765  1.00  0.00     0.046 C 
BRANCH  10  11
ATOM     11  C3  UNK     1      42.261   2.585   8.346  1.00  0.00    -0.058 A 
ATOM     12  C6  UNK     1      42.529   1.542   7.472  1.00  0.00     0.010 A 
ATOM     13  C12 UNK     1      43.846   1.293   7.084  1.00  0.00     0.037 A 
ATOM     14  C15 UNK     1      44.881   2.089   7.577  1.00  0.00     0.065 A 
ATOM     15  C13 UNK     1      44.598   3.135   8.457  1.00  0.00     0.037 A 
ATOM     16  C7  UNK     1      43.281   3.384   8.843  1.00  0.00     0.010 A 
BRANCH  14  17
ATOM     17  O5  UNK     1      46.164   1.847   7.198  1.00  0.00    -0.361 OA
ATOM     18  H14 UNK     1      46.711   1.725   7.993  1.00  0.00     0.217 HD
ENDBRANCH  14  17
ENDBRANCH  10  11
ENDBRANCH   9  10
ENDBRANCH   7   9
ENDBRANCH   1   7
BRANCH   2  19
ATOM     19  O2  UNK     1      40.151   0.761  11.499  1.00  0.00    -0.360 OA
ATOM     20  H11 UNK     1      39.641   0.457  12.267  1.00  0.00     0.217 HD
ENDBRANCH   2  19
BRANCH   3  21
ATOM     21  O3  UNK     1      39.718  -1.281   7.178  1.00  0.00    -0.360 OA
ATOM     22  H12 UNK     1      38.954  -0.682   7.117  1.00  0.00     0.217 HD
ENDBRANCH   3  21
BRANCH   6  23
ATOM     23  O4  UNK     1      42.073  -3.516  10.664  1.00  0.00    -0.361 OA
ATOM     24  H13 UNK     1      41.545  -4.320  10.519  1.00  0.00     0.217 HD
ENDBRANCH   6  23
TORSDOF 8
ENDMDL
MODEL 20
REMARK VINA RESULT:      -5.3      2.231      4.122
REMARK  8 active torsions:
REMARK  status: ('A' for Active; 'I' for Inactive)
REMARK    1  A    between atoms: O2_2  and  C8_13 
REMARK    2  A    between atoms: O3_3  and  C9_14 
REMARK    3  A    between atoms: O4_4  and  C14_19 
REMARK    4  A    between atoms: O5_5  and  C15_20 
REMARK    5  A    between atoms: C1_6  and  C2_7 
REMARK    6  A    between atoms: C1_6  and  C3_8 
REMARK    7  A    between atoms: C2_7  and  C4_9 
REMARK    8  A    between atoms: C4_9  and  C5_10 
ROOT
ATOM      1  C5  UNK     1      39.853  -0.223   9.267  1.00  0.00     0.076 A 
ATOM      2  C8  UNK     1      40.137  -1.286   8.410  1.00  0.00     0.085 A 
ATOM      3  C9  UNK     1      40.289  -0.260  10.592  1.00  0.00     0.085 A 
ATOM      4  C10 UNK     1      40.856  -2.386   8.876  1.00  0.00     0.074 A 
ATOM      5  C11 UNK     1      41.009  -1.359  11.059  1.00  0.00     0.074 A 
ATOM      6  C14 UNK     1      41.293  -2.423  10.200  1.00  0.00     0.071 A 
ENDROOT
BRANCH   1   7
ATOM      7  C4  UNK     1      39.100   0.927   8.778  1.00  0.00     0.165 C 
ATOM      8  O1  UNK     1      37.888   1.050   9.039  1.00  0.00    -0.292 OA
BRANCH   7   9
ATOM      9  C2  UNK     1      39.806   1.998   7.930  1.00  0.00     0.088 C 
BRANCH   9  10
ATOM     10  C1  UNK     1      40.788   2.855   8.733  1.00  0.00     0.046 C 
BRANCH  10  11
ATOM     11  C3  UNK     1      42.217   2.580   8.342  1.00  0.00    -0.058 A 
ATOM     12  C6  UNK     1      43.233   3.351   8.885  1.00  0.00     0.010 A 
ATOM     13  C12 UNK     1      44.556   3.096   8.523  1.00  0.00     0.037 A 
ATOM     14  C15 UNK     1      44.847   2.073   7.619  1.00  0.00     0.065 A 
ATOM     15  C13 UNK     1      43.815   1.305   7.079  1.00  0.00     0.037 A 
ATOM     16  C7  UNK     1      42.493   1.560   7.442  1.00  0.00     0.010 A 
BRANCH  14  17
ATOM     17  O5  UNK     1      46.137   1.824   7.267  1.00  0.00    -0.361 OA
ATOM     18  H14 UNK     1      46.654   1.642   8.070  1.00  0.00     0.217 HD
ENDBRANCH  14  17
ENDBRANCH  10  11
ENDBRANCH   9  10
ENDBRANCH   7   9
ENDBRANCH   1   7
BRANCH   2  19
ATOM     19  O2  UNK     1      39.720  -1.270   7.112  1.00  0.00    -0.360 OA
ATOM     20  H11 UNK     1      38.752  -1.215   7.063  1.00  0.00     0.217 HD
ENDBRANCH   2  19
BRANCH   3  21
ATOM     21  O3  UNK     1      40.023   0.769  11.446  1.00  0.00    -0.360 OA
ATOM     22  H12 UNK     1      39.354   1.350  11.046  1.00  0.00     0.217 HD
ENDBRANCH   3  21
BRANCH   6  23
ATOM     23  O4  UNK     1      41.995  -3.496  10.656  1.00  0.00    -0.361 OA
ATOM     24  H13 UNK     1      42.397  -3.954   9.899  1.00  0.00     0.217 HD
ENDBRANCH   6  23
TORSDOF 8
ENDMDL
