MODEL 1
REMARK VINA RESULT:      -8.3      0.000      0.000
REMARK  8 active torsions:
REMARK  status: ('A' for Active; 'I' for Inactive)
REMARK    1  A    between atoms: O2_2  and  C8_13 
REMARK    2  A    between atoms: O3_3  and  C9_14 
REMARK    3  A    between atoms: O4_4  and  C14_19 
REMARK    4  A    between atoms: O5_5  and  C15_20 
REMARK    5  A    between atoms: C1_6  and  C2_7 
REMARK    6  A    between atoms: C1_6  and  C3_8 
REMARK    7  A    between atoms: C2_7  and  C4_9 
REMARK    8  A    between atoms: C4_9  and  C5_10 
ROOT
ATOM      1  C5  UNK     1      40.218  13.118  -1.435  1.00  0.00     0.076 A 
ATOM      2  C8  UNK     1      41.381  12.348  -1.404  1.00  0.00     0.085 A 
ATOM      3  C9  UNK     1      39.170  12.832  -0.560  1.00  0.00     0.085 A 
ATOM      4  C10 UNK     1      41.496  11.293  -0.499  1.00  0.00     0.074 A 
ATOM      5  C11 UNK     1      39.284  11.777   0.345  1.00  0.00     0.074 A 
ATOM      6  C14 UNK     1      40.447  11.007   0.375  1.00  0.00     0.071 A 
ENDROOT
BRANCH   1   7
ATOM      7  C4  UNK     1      40.100  14.222  -2.381  1.00  0.00     0.165 C 
ATOM      8  O1  UNK     1      39.190  14.234  -3.231  1.00  0.00    -0.292 OA
BRANCH   7   9
ATOM      9  C2  UNK     1      41.109  15.381  -2.332  1.00  0.00     0.088 C 
BRANCH   9  10
ATOM     10  C1  UNK     1      40.573  16.675  -2.950  1.00  0.00     0.046 C 
BRANCH  10  11
ATOM     11  C3  UNK     1      39.890  17.541  -1.923  1.00  0.00    -0.058 A 
ATOM     12  C6  UNK     1      39.811  18.909  -2.129  1.00  0.00     0.010 A 
ATOM     13  C12 UNK     1      39.178  19.711  -1.179  1.00  0.00     0.037 A 
ATOM     14  C15 UNK     1      38.634  19.134  -0.031  1.00  0.00     0.065 A 
ATOM     15  C13 UNK     1      38.721  17.756   0.165  1.00  0.00     0.037 A 
ATOM     16  C7  UNK     1      39.352  16.955  -0.786  1.00  0.00     0.010 A 
BRANCH  14  17
ATOM     17  O5  UNK     1      38.016  19.916   0.896  1.00  0.00    -0.361 OA
ATOM     18  H14 UNK     1      37.462  20.571   0.437  1.00  0.00     0.217 HD
ENDBRANCH  14  17
ENDBRANCH  10  11
ENDBRANCH   9  10
ENDBRANCH   7   9
ENDBRANCH   1   7
BRANCH   2  19
ATOM     19  O2  UNK     1      42.418  12.610  -2.249  1.00  0.00    -0.360 OA
ATOM     20  H11 UNK     1      42.843  13.453  -2.020  1.00  0.00     0.217 HD
ENDBRANCH   2  19
BRANCH   3  21
ATOM     21  O3  UNK     1      38.025  13.572  -0.573  1.00  0.00    -0.360 OA
ATOM     22  H12 UNK     1      37.910  13.965  -1.456  1.00  0.00     0.217 HD
ENDBRANCH   3  21
BRANCH   6  23
ATOM     23  O4  UNK     1      40.558   9.977   1.258  1.00  0.00    -0.361 OA
ATOM     24  H13 UNK     1      40.947  10.311   2.084  1.00  0.00     0.217 HD
ENDBRANCH   6  23
TORSDOF 8
ENDMDL
MODEL 2
REMARK VINA RESULT:      -8.3      0.004      1.863
REMARK  8 active torsions:
REMARK  status: ('A' for Active; 'I' for Inactive)
REMARK    1  A    between atoms: O2_2  and  C8_13 
REMARK    2  A    between atoms: O3_3  and  C9_14 
REMARK    3  A    between atoms: O4_4  and  C14_19 
REMARK    4  A    between atoms: O5_5  and  C15_20 
REMARK    5  A    between atoms: C1_6  and  C2_7 
REMARK    6  A    between atoms: C1_6  and  C3_8 
REMARK    7  A    between atoms: C2_7  and  C4_9 
REMARK    8  A    between atoms: C4_9  and  C5_10 
ROOT
ATOM      1  C5  UNK     1      40.220  13.117  -1.434  1.00  0.00     0.076 A 
ATOM      2  C8  UNK     1      39.171  12.831  -0.559  1.00  0.00     0.085 A 
ATOM      3  C9  UNK     1      41.382  12.346  -1.404  1.00  0.00     0.085 A 
ATOM      4  C10 UNK     1      39.285  11.775   0.345  1.00  0.00     0.074 A 
ATOM      5  C11 UNK     1      41.496  11.290  -0.501  1.00  0.00     0.074 A 
ATOM      6  C14 UNK     1      40.447  11.004   0.374  1.00  0.00     0.071 A 
ENDROOT
BRANCH   1   7
ATOM      7  C4  UNK     1      40.100  14.222  -2.379  1.00  0.00     0.165 C 
ATOM      8  O1  UNK     1      39.188  14.234  -3.228  1.00  0.00    -0.292 OA
BRANCH   7   9
ATOM      9  C2  UNK     1      41.108  15.382  -2.331  1.00  0.00     0.088 C 
BRANCH   9  10
ATOM     10  C1  UNK     1      40.571  16.675  -2.947  1.00  0.00     0.046 C 
BRANCH  10  11
ATOM     11  C3  UNK     1      39.890  17.542  -1.919  1.00  0.00    -0.058 A 
ATOM     12  C6  UNK     1      39.812  18.910  -2.125  1.00  0.00     0.010 A 
ATOM     13  C12 UNK     1      39.181  19.712  -1.173  1.00  0.00     0.037 A 
ATOM     14  C15 UNK     1      38.637  19.135  -0.025  1.00  0.00     0.065 A 
ATOM     15  C13 UNK     1      38.723  17.757   0.170  1.00  0.00     0.037 A 
ATOM     16  C7  UNK     1      39.353  16.955  -0.782  1.00  0.00     0.010 A 
BRANCH  14  17
ATOM     17  O5  UNK     1      38.021  19.917   0.902  1.00  0.00    -0.361 OA
ATOM     18  H14 UNK     1      37.181  19.500   1.159  1.00  0.00     0.217 HD
ENDBRANCH  14  17
ENDBRANCH  10  11
ENDBRANCH   9  10
ENDBRANCH   7   9
ENDBRANCH   1   7
BRANCH   2  19
ATOM     19  O2  UNK     1      38.027  13.572  -0.571  1.00  0.00    -0.360 OA
ATOM     20  H11 UNK     1      38.205  14.483  -0.287  1.00  0.00     0.217 HD
ENDBRANCH   2  19
BRANCH   3  21
ATOM     21  O3  UNK     1      42.418  12.608  -2.251  1.00  0.00    -0.360 OA
ATOM     22  H12 UNK     1      42.947  13.340  -1.889  1.00  0.00     0.217 HD
ENDBRANCH   3  21
BRANCH   6  23
ATOM     23  O4  UNK     1      40.559   9.974   1.256  1.00  0.00    -0.361 OA
ATOM     24  H13 UNK     1      40.066   9.210   0.912  1.00  0.00     0.217 HD
ENDBRANCH   6  23
TORSDOF 8
ENDMDL
MODEL 3
REMARK VINA RESULT:      -8.3      0.018      1.081
REMARK  8 active torsions:
REMARK  status: ('A' for Active; 'I' for Inactive)
REMARK    1  A    between atoms: O2_2  and  C8_13 
REMARK    2  A    between atoms: O3_3  and  C9_14 
REMARK    3  A    between atoms: O4_4  and  C14_19 
REMARK    4  A    between atoms: O5_5  and  C15_20 
REMARK    5  A    between atoms: C1_6  and  C2_7 
REMARK    6  A    between atoms: C1_6  and  C3_8 
REMARK    7  A    between atoms: C2_7  and  C4_9 
REMARK    8  A    between atoms: C4_9  and  C5_10 
ROOT
ATOM      1  C5  UNK     1      40.223  13.120  -1.441  1.00  0.00     0.076 A 
ATOM      2  C8  UNK     1      41.388  12.352  -1.416  1.00  0.00     0.085 A 
ATOM      3  C9  UNK     1      39.176  12.827  -0.567  1.00  0.00     0.085 A 
ATOM      4  C10 UNK     1      41.505  11.292  -0.517  1.00  0.00     0.074 A 
ATOM      5  C11 UNK     1      39.293  11.768   0.332  1.00  0.00     0.074 A 
ATOM      6  C14 UNK     1      40.458  10.999   0.357  1.00  0.00     0.071 A 
ENDROOT
BRANCH   1   7
ATOM      7  C4  UNK     1      40.102  14.228  -2.381  1.00  0.00     0.165 C 
ATOM      8  O1  UNK     1      39.194  14.241  -3.235  1.00  0.00    -0.292 OA
BRANCH   7   9
ATOM      9  C2  UNK     1      41.105  15.393  -2.324  1.00  0.00     0.088 C 
BRANCH   9  10
ATOM     10  C1  UNK     1      40.565  16.686  -2.939  1.00  0.00     0.046 C 
BRANCH  10  11
ATOM     11  C3  UNK     1      39.886  17.552  -1.909  1.00  0.00    -0.058 A 
ATOM     12  C6  UNK     1      39.343  16.965  -0.776  1.00  0.00     0.010 A 
ATOM     13  C12 UNK     1      38.715  17.767   0.177  1.00  0.00     0.037 A 
ATOM     14  C15 UNK     1      38.634  19.147  -0.015  1.00  0.00     0.065 A 
ATOM     15  C13 UNK     1      39.184  19.724  -1.160  1.00  0.00     0.037 A 
ATOM     16  C7  UNK     1      39.813  18.922  -2.112  1.00  0.00     0.010 A 
BRANCH  14  17
ATOM     17  O5  UNK     1      38.023  19.928   0.915  1.00  0.00    -0.361 OA
ATOM     18  H14 UNK     1      38.652  20.601   1.225  1.00  0.00     0.217 HD
ENDBRANCH  14  17
ENDBRANCH  10  11
ENDBRANCH   9  10
ENDBRANCH   7   9
ENDBRANCH   1   7
BRANCH   2  19
ATOM     19  O2  UNK     1      42.423  12.621  -2.261  1.00  0.00    -0.360 OA
ATOM     20  H11 UNK     1      42.434  13.561  -2.502  1.00  0.00     0.217 HD
ENDBRANCH   2  19
BRANCH   3  21
ATOM     21  O3  UNK     1      38.030  13.566  -0.575  1.00  0.00    -0.360 OA
ATOM     22  H12 UNK     1      38.145  14.337   0.006  1.00  0.00     0.217 HD
ENDBRANCH   3  21
BRANCH   6  23
ATOM     23  O4  UNK     1      40.571   9.965   1.233  1.00  0.00    -0.361 OA
ATOM     24  H13 UNK     1      41.198  10.213   1.934  1.00  0.00     0.217 HD
ENDBRANCH   6  23
TORSDOF 8
ENDMDL
MODEL 4
REMARK VINA RESULT:      -8.3      1.463      6.463
REMARK  8 active torsions:
REMARK  status: ('A' for Active; 'I' for Inactive)
REMARK    1  A    between atoms: O2_2  and  C8_13 
REMARK    2  A    between atoms: O3_3  and  C9_14 
REMARK    3  A    between atoms: O4_4  and  C14_19 
REMARK    4  A    between atoms: O5_5  and  C15_20 
REMARK    5  A    between atoms: C1_6  and  C2_7 
REMARK    6  A    between atoms: C1_6  and  C3_8 
REMARK    7  A    between atoms: C2_7  and  C4_9 
REMARK    8  A    between atoms: C4_9  and  C5_10 
ROOT
ATOM      1  C5  UNK     1      39.864  16.762  -2.149  1.00  0.00     0.076 A 
ATOM      2  C8  UNK     1      39.181  16.888  -0.939  1.00  0.00     0.085 A 
ATOM      3  C9  UNK     1      40.208  17.902  -2.876  1.00  0.00     0.085 A 
ATOM      4  C10 UNK     1      38.843  18.152  -0.456  1.00  0.00     0.074 A 
ATOM      5  C11 UNK     1      39.871  19.166  -2.394  1.00  0.00     0.074 A 
ATOM      6  C14 UNK     1      39.188  19.291  -1.184  1.00  0.00     0.071 A 
ENDROOT
BRANCH   1   7
ATOM      7  C4  UNK     1      40.217  15.440  -2.652  1.00  0.00     0.165 C 
ATOM      8  O1  UNK     1      39.353  14.706  -3.170  1.00  0.00    -0.292 OA
BRANCH   7   9
ATOM      9  C2  UNK     1      41.668  14.942  -2.541  1.00  0.00     0.088 C 
BRANCH   9  10
ATOM     10  C1  UNK     1      42.115  14.700  -1.098  1.00  0.00     0.046 C 
BRANCH  10  11
ATOM     11  C3  UNK     1      41.580  13.399  -0.559  1.00  0.00    -0.058 A 
ATOM     12  C6  UNK     1      41.697  12.246  -1.321  1.00  0.00     0.010 A 
ATOM     13  C12 UNK     1      41.201  11.041  -0.822  1.00  0.00     0.037 A 
ATOM     14  C15 UNK     1      40.592  11.004   0.433  1.00  0.00     0.065 A 
ATOM     15  C13 UNK     1      40.480  12.171   1.189  1.00  0.00     0.037 A 
ATOM     16  C7  UNK     1      40.976  13.375   0.690  1.00  0.00     0.010 A 
BRANCH  14  17
ATOM     17  O5  UNK     1      40.110   9.829   0.920  1.00  0.00    -0.361 OA
ATOM     18  H14 UNK     1      40.727   9.488   1.590  1.00  0.00     0.217 HD
ENDBRANCH  14  17
ENDBRANCH  10  11
ENDBRANCH   9  10
ENDBRANCH   7   9
ENDBRANCH   1   7
BRANCH   2  19
ATOM     19  O2  UNK     1      38.835  15.788  -0.211  1.00  0.00    -0.360 OA
ATOM     20  H11 UNK     1      39.121  15.883   0.711  1.00  0.00     0.217 HD
ENDBRANCH   2  19
BRANCH   3  21
ATOM     21  O3  UNK     1      40.876  17.801  -4.061  1.00  0.00    -0.360 OA
ATOM     22  H12 UNK     1      41.337  16.945  -4.094  1.00  0.00     0.217 HD
ENDBRANCH   3  21
BRANCH   6  23
ATOM     23  O4  UNK     1      38.857  20.525  -0.714  1.00  0.00    -0.361 OA
ATOM     24  H13 UNK     1      39.660  21.074  -0.680  1.00  0.00     0.217 HD
ENDBRANCH   6  23
TORSDOF 8
ENDMDL
MODEL 5
REMARK VINA RESULT:      -8.2      1.451      6.299
REMARK  8 active torsions:
REMARK  status: ('A' for Active; 'I' for Inactive)
REMARK    1  A    between atoms: O2_2  and  C8_13 
REMARK    2  A    between atoms: O3_3  and  C9_14 
REMARK    3  A    between atoms: O4_4  and  C14_19 
REMARK    4  A    between atoms: O5_5  and  C15_20 
REMARK    5  A    between atoms: C1_6  and  C2_7 
REMARK    6  A    between atoms: C1_6  and  C3_8 
REMARK    7  A    between atoms: C2_7  and  C4_9 
REMARK    8  A    between atoms: C4_9  and  C5_10 
ROOT
ATOM      1  C5  UNK     1      39.863  16.724  -2.123  1.00  0.00     0.076 A 
ATOM      2  C8  UNK     1      40.200  17.868  -2.846  1.00  0.00     0.085 A 
ATOM      3  C9  UNK     1      39.174  16.840  -0.916  1.00  0.00     0.085 A 
ATOM      4  C10 UNK     1      39.848  19.128  -2.362  1.00  0.00     0.074 A 
ATOM      5  C11 UNK     1      38.821  18.099  -0.431  1.00  0.00     0.074 A 
ATOM      6  C14 UNK     1      39.159  19.244  -1.154  1.00  0.00     0.071 A 
ENDROOT
BRANCH   1   7
ATOM      7  C4  UNK     1      40.231  15.407  -2.631  1.00  0.00     0.165 C 
ATOM      8  O1  UNK     1      39.371  14.656  -3.130  1.00  0.00    -0.292 OA
BRANCH   7   9
ATOM      9  C2  UNK     1      41.693  14.937  -2.547  1.00  0.00     0.088 C 
BRANCH   9  10
ATOM     10  C1  UNK     1      42.165  14.680  -1.115  1.00  0.00     0.046 C 
BRANCH  10  11
ATOM     11  C3  UNK     1      41.613  13.387  -0.570  1.00  0.00    -0.058 A 
ATOM     12  C6  UNK     1      41.019  13.373   0.682  1.00  0.00     0.010 A 
ATOM     13  C12 UNK     1      40.508  12.177   1.186  1.00  0.00     0.037 A 
ATOM     14  C15 UNK     1      40.599  11.007   0.431  1.00  0.00     0.065 A 
ATOM     15  C13 UNK     1      41.199  11.034  -0.828  1.00  0.00     0.037 A 
ATOM     16  C7  UNK     1      41.709  12.231  -1.331  1.00  0.00     0.010 A 
BRANCH  14  17
ATOM     17  O5  UNK     1      40.099   9.840   0.922  1.00  0.00    -0.361 OA
ATOM     18  H14 UNK     1      40.327   9.118   0.312  1.00  0.00     0.217 HD
ENDBRANCH  14  17
ENDBRANCH  10  11
ENDBRANCH   9  10
ENDBRANCH   7   9
ENDBRANCH   1   7
BRANCH   2  19
ATOM     19  O2  UNK     1      40.873  17.778  -4.028  1.00  0.00    -0.360 OA
ATOM     20  H11 UNK     1      41.828  17.868  -3.886  1.00  0.00     0.217 HD
ENDBRANCH   2  19
BRANCH   3  21
ATOM     21  O3  UNK     1      38.835  15.734  -0.194  1.00  0.00    -0.360 OA
ATOM     22  H12 UNK     1      37.869  15.716  -0.075  1.00  0.00     0.217 HD
ENDBRANCH   3  21
BRANCH   6  23
ATOM     23  O4  UNK     1      38.815  20.472  -0.681  1.00  0.00    -0.361 OA
ATOM     24  H13 UNK     1      39.260  20.617   0.172  1.00  0.00     0.217 HD
ENDBRANCH   6  23
TORSDOF 8
ENDMDL
MODEL 6
REMARK VINA RESULT:      -7.2      1.636      6.498
REMARK  8 active torsions:
REMARK  status: ('A' for Active; 'I' for Inactive)
REMARK    1  A    between atoms: O2_2  and  C8_13 
REMARK    2  A    between atoms: O3_3  and  C9_14 
REMARK    3  A    between atoms: O4_4  and  C14_19 
REMARK    4  A    between atoms: O5_5  and  C15_20 
REMARK    5  A    between atoms: C1_6  and  C2_7 
REMARK    6  A    between atoms: C1_6  and  C3_8 
REMARK    7  A    between atoms: C2_7  and  C4_9 
REMARK    8  A    between atoms: C4_9  and  C5_10 
ROOT
ATOM      1  C5  UNK     1      39.626  17.941  -1.846  1.00  0.00     0.076 A 
ATOM      2  C8  UNK     1      39.860  19.315  -1.825  1.00  0.00     0.085 A 
ATOM      3  C9  UNK     1      38.829  17.355  -0.862  1.00  0.00     0.085 A 
ATOM      4  C10 UNK     1      39.299  20.104  -0.822  1.00  0.00     0.074 A 
ATOM      5  C11 UNK     1      38.267  18.143   0.142  1.00  0.00     0.074 A 
ATOM      6  C14 UNK     1      38.502  19.519   0.162  1.00  0.00     0.071 A 
ENDROOT
BRANCH   1   7
ATOM      7  C4  UNK     1      40.213  17.117  -2.896  1.00  0.00     0.165 C 
ATOM      8  O1  UNK     1      40.676  17.639  -3.929  1.00  0.00    -0.292 OA
BRANCH   7   9
ATOM      9  C2  UNK     1      40.260  15.588  -2.732  1.00  0.00     0.088 C 
BRANCH   9  10
ATOM     10  C1  UNK     1      41.565  15.087  -2.110  1.00  0.00     0.046 C 
BRANCH  10  11
ATOM     11  C3  UNK     1      41.366  13.793  -1.364  1.00  0.00    -0.058 A 
ATOM     12  C6  UNK     1      41.771  12.602  -1.946  1.00  0.00     0.010 A 
ATOM     13  C12 UNK     1      41.587  11.403  -1.255  1.00  0.00     0.037 A 
ATOM     14  C15 UNK     1      40.998  11.411   0.010  1.00  0.00     0.065 A 
ATOM     15  C13 UNK     1      40.594  12.617   0.584  1.00  0.00     0.037 A 
ATOM     16  C7  UNK     1      40.780  13.814  -0.107  1.00  0.00     0.010 A 
BRANCH  14  17
ATOM     17  O5  UNK     1      40.820  10.243   0.684  1.00  0.00    -0.361 OA
ATOM     18  H14 UNK     1      41.272  10.302   1.543  1.00  0.00     0.217 HD
ENDBRANCH  14  17
ENDBRANCH  10  11
ENDBRANCH   9  10
ENDBRANCH   7   9
ENDBRANCH   1   7
BRANCH   2  19
ATOM     19  O2  UNK     1      40.636  19.909  -2.777  1.00  0.00    -0.360 OA
ATOM     20  H11 UNK     1      41.556  19.610  -2.704  1.00  0.00     0.217 HD
ENDBRANCH   2  19
BRANCH   3  21
ATOM     21  O3  UNK     1      38.586  16.013  -0.864  1.00  0.00    -0.360 OA
ATOM     22  H12 UNK     1      37.814  15.830  -1.427  1.00  0.00     0.217 HD
ENDBRANCH   3  21
BRANCH   6  23
ATOM     23  O4  UNK     1      37.954  20.288   1.142  1.00  0.00    -0.361 OA
ATOM     24  H13 UNK     1      37.279  19.768   1.610  1.00  0.00     0.217 HD
ENDBRANCH   6  23
TORSDOF 8
ENDMDL
MODEL 7
REMARK VINA RESULT:      -6.4      1.473      2.459
REMARK  8 active torsions:
REMARK  status: ('A' for Active; 'I' for Inactive)
REMARK    1  A    between atoms: O2_2  and  C8_13 
REMARK    2  A    between atoms: O3_3  and  C9_14 
REMARK    3  A    between atoms: O4_4  and  C14_19 
REMARK    4  A    between atoms: O5_5  and  C15_20 
REMARK    5  A    between atoms: C1_6  and  C2_7 
REMARK    6  A    between atoms: C1_6  and  C3_8 
REMARK    7  A    between atoms: C2_7  and  C4_9 
REMARK    8  A    between atoms: C4_9  and  C5_10 
ROOT
ATOM      1  C5  UNK     1      39.953  13.328  -0.885  1.00  0.00     0.076 A 
ATOM      2  C8  UNK     1      39.281  12.281  -0.254  1.00  0.00     0.085 A 
ATOM      3  C9  UNK     1      41.256  13.650  -0.505  1.00  0.00     0.085 A 
ATOM      4  C10 UNK     1      39.912  11.557   0.758  1.00  0.00     0.074 A 
ATOM      5  C11 UNK     1      41.887  12.926   0.506  1.00  0.00     0.074 A 
ATOM      6  C14 UNK     1      41.215  11.879   1.138  1.00  0.00     0.071 A 
ENDROOT
BRANCH   1   7
ATOM      7  C4  UNK     1      39.293  14.084  -1.943  1.00  0.00     0.165 C 
ATOM      8  O1  UNK     1      39.677  13.991  -3.125  1.00  0.00    -0.292 OA
BRANCH   7   9
ATOM      9  C2  UNK     1      38.112  15.008  -1.600  1.00  0.00     0.088 C 
BRANCH   9  10
ATOM     10  C1  UNK     1      38.350  15.853  -0.348  1.00  0.00     0.046 C 
BRANCH  10  11
ATOM     11  C3  UNK     1      38.760  17.261  -0.696  1.00  0.00    -0.058 A 
ATOM     12  C6  UNK     1      39.605  17.479  -1.773  1.00  0.00     0.010 A 
ATOM     13  C12 UNK     1      39.984  18.782  -2.095  1.00  0.00     0.037 A 
ATOM     14  C15 UNK     1      39.514  19.854  -1.335  1.00  0.00     0.065 A 
ATOM     15  C13 UNK     1      38.664  19.621  -0.253  1.00  0.00     0.037 A 
ATOM     16  C7  UNK     1      38.285  18.318   0.068  1.00  0.00     0.010 A 
BRANCH  14  17
ATOM     17  O5  UNK     1      39.882  21.125  -1.650  1.00  0.00    -0.361 OA
ATOM     18  H14 UNK     1      40.545  21.094  -2.360  1.00  0.00     0.217 HD
ENDBRANCH  14  17
ENDBRANCH  10  11
ENDBRANCH   9  10
ENDBRANCH   7   9
ENDBRANCH   1   7
BRANCH   2  19
ATOM     19  O2  UNK     1      38.008  11.949  -0.610  1.00  0.00    -0.360 OA
ATOM     20  H11 UNK     1      37.776  11.069  -0.271  1.00  0.00     0.217 HD
ENDBRANCH   2  19
BRANCH   3  21
ATOM     21  O3  UNK     1      41.930  14.669  -1.110  1.00  0.00    -0.360 OA
ATOM     22  H12 UNK     1      42.844  14.687  -0.777  1.00  0.00     0.217 HD
ENDBRANCH   3  21
BRANCH   6  23
ATOM     23  O4  UNK     1      41.830  11.173   2.125  1.00  0.00    -0.361 OA
ATOM     24  H13 UNK     1      42.615  10.733   1.755  1.00  0.00     0.217 HD
ENDBRANCH   6  23
TORSDOF 8
ENDMDL
MODEL 8
REMARK VINA RESULT:      -6.3      1.542      2.005
REMARK  8 active torsions:
REMARK  status: ('A' for Active; 'I' for Inactive)
REMARK    1  A    between atoms: O2_2  and  C8_13 
REMARK    2  A    between atoms: O3_3  and  C9_14 
REMARK    3  A    between atoms: O4_4  and  C14_19 
REMARK    4  A    between atoms: O5_5  and  C15_20 
REMARK    5  A    between atoms: C1_6  and  C2_7 
REMARK    6  A    between atoms: C1_6  and  C3_8 
REMARK    7  A    between atoms: C2_7  and  C4_9 
REMARK    8  A    between atoms: C4_9  and  C5_10 
ROOT
ATOM      1  C5  UNK     1      39.912  13.528  -0.944  1.00  0.00     0.076 A 
ATOM      2  C8  UNK     1      41.203  13.897  -0.568  1.00  0.00     0.085 A 
ATOM      3  C9  UNK     1      39.290  12.442  -0.328  1.00  0.00     0.085 A 
ATOM      4  C10 UNK     1      41.872  13.181   0.425  1.00  0.00     0.074 A 
ATOM      5  C11 UNK     1      39.958  11.726   0.664  1.00  0.00     0.074 A 
ATOM      6  C14 UNK     1      41.250  12.095   1.041  1.00  0.00     0.071 A 
ENDROOT
BRANCH   1   7
ATOM      7  C4  UNK     1      39.213  14.278  -1.982  1.00  0.00     0.165 C 
ATOM      8  O1  UNK     1      39.628  14.274  -3.157  1.00  0.00    -0.292 OA
BRANCH   7   9
ATOM      9  C2  UNK     1      37.953  15.085  -1.625  1.00  0.00     0.088 C 
BRANCH   9  10
ATOM     10  C1  UNK     1      38.124  15.949  -0.374  1.00  0.00     0.046 C 
BRANCH  10  11
ATOM     11  C3  UNK     1      38.619  17.331  -0.714  1.00  0.00    -0.058 A 
ATOM     12  C6  UNK     1      39.508  17.497  -1.765  1.00  0.00     0.010 A 
ATOM     13  C12 UNK     1      39.965  18.777  -2.081  1.00  0.00     0.037 A 
ATOM     14  C15 UNK     1      39.530  19.876  -1.340  1.00  0.00     0.065 A 
ATOM     15  C13 UNK     1      38.636  19.695  -0.284  1.00  0.00     0.037 A 
ATOM     16  C7  UNK     1      38.178  18.416   0.030  1.00  0.00     0.010 A 
BRANCH  14  17
ATOM     17  O5  UNK     1      39.975  21.124  -1.648  1.00  0.00    -0.361 OA
ATOM     18  H14 UNK     1      39.552  21.415  -2.473  1.00  0.00     0.217 HD
ENDBRANCH  14  17
ENDBRANCH  10  11
ENDBRANCH   9  10
ENDBRANCH   7   9
ENDBRANCH   1   7
BRANCH   2  19
ATOM     19  O2  UNK     1      41.830  14.955  -1.156  1.00  0.00    -0.360 OA
ATOM     20  H11 UNK     1      42.728  15.060  -0.804  1.00  0.00     0.217 HD
ENDBRANCH   2  19
BRANCH   3  21
ATOM     21  O3  UNK     1      38.028  12.065  -0.681  1.00  0.00    -0.360 OA
ATOM     22  H12 UNK     1      37.456  12.852  -0.706  1.00  0.00     0.217 HD
ENDBRANCH   3  21
BRANCH   6  23
ATOM     23  O4  UNK     1      41.902  11.395   2.009  1.00  0.00    -0.361 OA
ATOM     24  H13 UNK     1      41.930  11.931   2.820  1.00  0.00     0.217 HD
ENDBRANCH   6  23
TORSDOF 8
ENDMDL
MODEL 9
REMARK VINA RESULT:      -6.2      9.180     12.051
REMARK  8 active torsions:
REMARK  status: ('A' for Active; 'I' for Inactive)
REMARK    1  A    between atoms: O2_2  and  C8_13 
REMARK    2  A    between atoms: O3_3  and  C9_14 
REMARK    3  A    between atoms: O4_4  and  C14_19 
REMARK    4  A    between atoms: O5_5  and  C15_20 
REMARK    5  A    between atoms: C1_6  and  C2_7 
REMARK    6  A    between atoms: C1_6  and  C3_8 
REMARK    7  A    between atoms: C2_7  and  C4_9 
REMARK    8  A    between atoms: C4_9  and  C5_10 
ROOT
ATOM      1  C5  UNK     1      49.138  12.755  -5.917  1.00  0.00     0.076 A 
ATOM      2  C8  UNK     1      49.772  13.997  -5.932  1.00  0.00     0.085 A 
ATOM      3  C9  UNK     1      48.023  12.552  -5.104  1.00  0.00     0.085 A 
ATOM      4  C10 UNK     1      49.293  15.035  -5.134  1.00  0.00     0.074 A 
ATOM      5  C11 UNK     1      47.543  13.589  -4.306  1.00  0.00     0.074 A 
ATOM      6  C14 UNK     1      48.178  14.832  -4.320  1.00  0.00     0.071 A 
ENDROOT
BRANCH   1   7
ATOM      7  C4  UNK     1      49.640  11.671  -6.753  1.00  0.00     0.165 C 
ATOM      8  O1  UNK     1      49.076  11.382  -7.826  1.00  0.00    -0.292 OA
BRANCH   7   9
ATOM      9  C2  UNK     1      50.876  10.871  -6.307  1.00  0.00     0.088 C 
BRANCH   9  10
ATOM     10  C1  UNK     1      50.582   9.889  -5.171  1.00  0.00     0.046 C 
BRANCH  10  11
ATOM     11  C3  UNK     1      50.974  10.455  -3.831  1.00  0.00    -0.058 A 
ATOM     12  C6  UNK     1      52.270  10.906  -3.634  1.00  0.00     0.010 A 
ATOM     13  C12 UNK     1      52.633  11.431  -2.392  1.00  0.00     0.037 A 
ATOM     14  C15 UNK     1      51.694  11.495  -1.361  1.00  0.00     0.065 A 
ATOM     15  C13 UNK     1      50.394  11.036  -1.573  1.00  0.00     0.037 A 
ATOM     16  C7  UNK     1      50.032  10.513  -2.814  1.00  0.00     0.010 A 
BRANCH  14  17
ATOM     17  O5  UNK     1      52.047  12.007  -0.152  1.00  0.00    -0.361 OA
ATOM     18  H14 UNK     1      52.238  12.955  -0.254  1.00  0.00     0.217 HD
ENDBRANCH  14  17
ENDBRANCH  10  11
ENDBRANCH   9  10
ENDBRANCH   7   9
ENDBRANCH   1   7
BRANCH   2  19
ATOM     19  O2  UNK     1      50.863  14.218  -6.719  1.00  0.00    -0.360 OA
ATOM     20  H11 UNK     1      51.231  13.379  -7.039  1.00  0.00     0.217 HD
ENDBRANCH   2  19
BRANCH   3  21
ATOM     21  O3  UNK     1      47.387  11.346  -5.076  1.00  0.00    -0.360 OA
ATOM     22  H12 UNK     1      47.811  10.748  -5.715  1.00  0.00     0.217 HD
ENDBRANCH   3  21
BRANCH   6  23
ATOM     23  O4  UNK     1      47.710  15.844  -3.541  1.00  0.00    -0.361 OA
ATOM     24  H13 UNK     1      46.742  15.767  -3.472  1.00  0.00     0.217 HD
ENDBRANCH   6  23
TORSDOF 8
ENDMDL
MODEL 10
REMARK VINA RESULT:      -6.2      9.186     12.151
REMARK  8 active torsions:
REMARK  status: ('A' for Active; 'I' for Inactive)
REMARK    1  A    between atoms: O2_2  and  C8_13 
REMARK    2  A    between atoms: O3_3  and  C9_14 
REMARK    3  A    between atoms: O4_4  and  C14_19 
REMARK    4  A    between atoms: O5_5  and  C15_20 
REMARK    5  A    between atoms: C1_6  and  C2_7 
REMARK    6  A    between atoms: C1_6  and  C3_8 
REMARK    7  A    between atoms: C2_7  and  C4_9 
REMARK    8  A    between atoms: C4_9  and  C5_10 
ROOT
ATOM      1  C5  UNK     1      49.138  12.755  -5.928  1.00  0.00     0.076 A 
ATOM      2  C8  UNK     1      48.023  12.550  -5.115  1.00  0.00     0.085 A 
ATOM      3  C9  UNK     1      49.773  13.997  -5.939  1.00  0.00     0.085 A 
ATOM      4  C10 UNK     1      47.543  13.586  -4.315  1.00  0.00     0.074 A 
ATOM      5  C11 UNK     1      49.294  15.033  -5.139  1.00  0.00     0.074 A 
ATOM      6  C14 UNK     1      48.178  14.828  -4.326  1.00  0.00     0.071 A 
ENDROOT
BRANCH   1   7
ATOM      7  C4  UNK     1      49.640  11.671  -6.764  1.00  0.00     0.165 C 
ATOM      8  O1  UNK     1      49.073  11.382  -7.836  1.00  0.00    -0.292 OA
BRANCH   7   9
ATOM      9  C2  UNK     1      50.877  10.872  -6.321  1.00  0.00     0.088 C 
BRANCH   9  10
ATOM     10  C1  UNK     1      50.587   9.889  -5.185  1.00  0.00     0.046 C 
BRANCH  10  11
ATOM     11  C3  UNK     1      50.979  10.454  -3.845  1.00  0.00    -0.058 A 
ATOM     12  C6  UNK     1      52.274  10.907  -3.648  1.00  0.00     0.010 A 
ATOM     13  C12 UNK     1      52.637  11.431  -2.407  1.00  0.00     0.037 A 
ATOM     14  C15 UNK     1      51.699  11.495  -1.376  1.00  0.00     0.065 A 
ATOM     15  C13 UNK     1      50.399  11.035  -1.586  1.00  0.00     0.037 A 
ATOM     16  C7  UNK     1      50.036  10.512  -2.828  1.00  0.00     0.010 A 
BRANCH  14  17
ATOM     17  O5  UNK     1      52.052  12.007  -0.166  1.00  0.00    -0.361 OA
ATOM     18  H14 UNK     1      51.598  12.856  -0.038  1.00  0.00     0.217 HD
ENDBRANCH  14  17
ENDBRANCH  10  11
ENDBRANCH   9  10
ENDBRANCH   7   9
ENDBRANCH   1   7
BRANCH   2  19
ATOM     19  O2  UNK     1      47.388  11.344  -5.089  1.00  0.00    -0.360 OA
ATOM     20  H11 UNK     1      46.521  11.423  -4.658  1.00  0.00     0.217 HD
ENDBRANCH   2  19
BRANCH   3  21
ATOM     21  O3  UNK     1      50.865  14.218  -6.725  1.00  0.00    -0.360 OA
ATOM     22  H12 UNK     1      50.714  15.015  -7.263  1.00  0.00     0.217 HD
ENDBRANCH   3  21
BRANCH   6  23
ATOM     23  O4  UNK     1      47.710  15.839  -3.545  1.00  0.00    -0.361 OA
ATOM     24  H13 UNK     1      48.307  15.953  -2.786  1.00  0.00     0.217 HD
ENDBRANCH   6  23
TORSDOF 8
ENDMDL
MODEL 11
REMARK VINA RESULT:      -6.2      9.182     12.171
REMARK  8 active torsions:
REMARK  status: ('A' for Active; 'I' for Inactive)
REMARK    1  A    between atoms: O2_2  and  C8_13 
REMARK    2  A    between atoms: O3_3  and  C9_14 
REMARK    3  A    between atoms: O4_4  and  C14_19 
REMARK    4  A    between atoms: O5_5  and  C15_20 
REMARK    5  A    between atoms: C1_6  and  C2_7 
REMARK    6  A    between atoms: C1_6  and  C3_8 
REMARK    7  A    between atoms: C2_7  and  C4_9 
REMARK    8  A    between atoms: C4_9  and  C5_10 
ROOT
ATOM      1  C5  UNK     1      49.139  12.756  -5.922  1.00  0.00     0.076 A 
ATOM      2  C8  UNK     1      48.024  12.552  -5.109  1.00  0.00     0.085 A 
ATOM      3  C9  UNK     1      49.774  13.999  -5.934  1.00  0.00     0.085 A 
ATOM      4  C10 UNK     1      47.543  13.589  -4.311  1.00  0.00     0.074 A 
ATOM      5  C11 UNK     1      49.294  15.036  -5.135  1.00  0.00     0.074 A 
ATOM      6  C14 UNK     1      48.177  14.831  -4.323  1.00  0.00     0.071 A 
ENDROOT
BRANCH   1   7
ATOM      7  C4  UNK     1      49.642  11.671  -6.756  1.00  0.00     0.165 C 
ATOM      8  O1  UNK     1      49.077  11.381  -7.829  1.00  0.00    -0.292 OA
BRANCH   7   9
ATOM      9  C2  UNK     1      50.878  10.872  -6.310  1.00  0.00     0.088 C 
BRANCH   9  10
ATOM     10  C1  UNK     1      50.584   9.890  -5.174  1.00  0.00     0.046 C 
BRANCH  10  11
ATOM     11  C3  UNK     1      50.974  10.456  -3.833  1.00  0.00    -0.058 A 
ATOM     12  C6  UNK     1      50.031  10.515  -2.818  1.00  0.00     0.010 A 
ATOM     13  C12 UNK     1      50.392  11.039  -1.576  1.00  0.00     0.037 A 
ATOM     14  C15 UNK     1      51.693  11.499  -1.365  1.00  0.00     0.065 A 
ATOM     15  C13 UNK     1      52.632  11.434  -2.395  1.00  0.00     0.037 A 
ATOM     16  C7  UNK     1      52.270  10.910  -3.635  1.00  0.00     0.010 A 
BRANCH  14  17
ATOM     17  O5  UNK     1      52.045  12.009  -0.154  1.00  0.00    -0.361 OA
ATOM     18  H14 UNK     1      51.399  11.716   0.512  1.00  0.00     0.217 HD
ENDBRANCH  14  17
ENDBRANCH  10  11
ENDBRANCH   9  10
ENDBRANCH   7   9
ENDBRANCH   1   7
BRANCH   2  19
ATOM     19  O2  UNK     1      47.388  11.346  -5.081  1.00  0.00    -0.360 OA
ATOM     20  H11 UNK     1      48.032  10.620  -5.071  1.00  0.00     0.217 HD
ENDBRANCH   2  19
BRANCH   3  21
ATOM     21  O3  UNK     1      50.866  14.219  -6.720  1.00  0.00    -0.360 OA
ATOM     22  H12 UNK     1      51.637  14.390  -6.152  1.00  0.00     0.217 HD
ENDBRANCH   3  21
BRANCH   6  23
ATOM     23  O4  UNK     1      47.708  15.844  -3.544  1.00  0.00    -0.361 OA
ATOM     24  H13 UNK     1      47.125  15.471  -2.861  1.00  0.00     0.217 HD
ENDBRANCH   6  23
TORSDOF 8
ENDMDL
MODEL 12
REMARK VINA RESULT:      -6.2      9.181     12.075
REMARK  8 active torsions:
REMARK  status: ('A' for Active; 'I' for Inactive)
REMARK    1  A    between atoms: O2_2  and  C8_13 
REMARK    2  A    between atoms: O3_3  and  C9_14 
REMARK    3  A    between atoms: O4_4  and  C14_19 
REMARK    4  A    between atoms: O5_5  and  C15_20 
REMARK    5  A    between atoms: C1_6  and  C2_7 
REMARK    6  A    between atoms: C1_6  and  C3_8 
REMARK    7  A    between atoms: C2_7  and  C4_9 
REMARK    8  A    between atoms: C4_9  and  C5_10 
ROOT
ATOM      1  C5  UNK     1      49.135  12.756  -5.916  1.00  0.00     0.076 A 
ATOM      2  C8  UNK     1      49.768  13.999  -5.932  1.00  0.00     0.085 A 
ATOM      3  C9  UNK     1      48.022  12.552  -5.101  1.00  0.00     0.085 A 
ATOM      4  C10 UNK     1      49.288  15.037  -5.133  1.00  0.00     0.074 A 
ATOM      5  C11 UNK     1      47.542  13.588  -4.302  1.00  0.00     0.074 A 
ATOM      6  C14 UNK     1      48.175  14.832  -4.317  1.00  0.00     0.071 A 
ENDROOT
BRANCH   1   7
ATOM      7  C4  UNK     1      49.636  11.672  -6.753  1.00  0.00     0.165 C 
ATOM      8  O1  UNK     1      49.069  11.382  -7.824  1.00  0.00    -0.292 OA
BRANCH   7   9
ATOM      9  C2  UNK     1      50.876  10.876  -6.311  1.00  0.00     0.088 C 
BRANCH   9  10
ATOM     10  C1  UNK     1      50.588   9.890  -5.178  1.00  0.00     0.046 C 
BRANCH  10  11
ATOM     11  C3  UNK     1      50.978  10.455  -3.836  1.00  0.00    -0.058 A 
ATOM     12  C6  UNK     1      50.036  10.512  -2.820  1.00  0.00     0.010 A 
ATOM     13  C12 UNK     1      50.397  11.034  -1.578  1.00  0.00     0.037 A 
ATOM     14  C15 UNK     1      51.697  11.496  -1.366  1.00  0.00     0.065 A 
ATOM     15  C13 UNK     1      52.635  11.433  -2.397  1.00  0.00     0.037 A 
ATOM     16  C7  UNK     1      52.274  10.910  -3.638  1.00  0.00     0.010 A 
BRANCH  14  17
ATOM     17  O5  UNK     1      52.049  12.004  -0.155  1.00  0.00    -0.361 OA
ATOM     18  H14 UNK     1      52.010  11.294   0.508  1.00  0.00     0.217 HD
ENDBRANCH  14  17
ENDBRANCH  10  11
ENDBRANCH   9  10
ENDBRANCH   7   9
ENDBRANCH   1   7
BRANCH   2  19
ATOM     19  O2  UNK     1      50.856  14.221  -6.722  1.00  0.00    -0.360 OA
ATOM     20  H11 UNK     1      50.586  14.557  -7.592  1.00  0.00     0.217 HD
ENDBRANCH   2  19
BRANCH   3  21
ATOM     21  O3  UNK     1      47.387  11.345  -5.071  1.00  0.00    -0.360 OA
ATOM     22  H12 UNK     1      46.435  11.489  -4.937  1.00  0.00     0.217 HD
ENDBRANCH   3  21
BRANCH   6  23
ATOM     23  O4  UNK     1      47.708  15.843  -3.537  1.00  0.00    -0.361 OA
ATOM     24  H13 UNK     1      46.785  15.653  -3.293  1.00  0.00     0.217 HD
ENDBRANCH   6  23
TORSDOF 8
ENDMDL
MODEL 13
REMARK VINA RESULT:      -6.1      9.086     11.497
REMARK  8 active torsions:
REMARK  status: ('A' for Active; 'I' for Inactive)
REMARK    1  A    between atoms: O2_2  and  C8_13 
REMARK    2  A    between atoms: O3_3  and  C9_14 
REMARK    3  A    between atoms: O4_4  and  C14_19 
REMARK    4  A    between atoms: O5_5  and  C15_20 
REMARK    5  A    between atoms: C1_6  and  C2_7 
REMARK    6  A    between atoms: C1_6  and  C3_8 
REMARK    7  A    between atoms: C2_7  and  C4_9 
REMARK    8  A    between atoms: C4_9  and  C5_10 
ROOT
ATOM      1  C5  UNK     1      49.162  12.803  -5.953  1.00  0.00     0.076 A 
ATOM      2  C8  UNK     1      49.728  14.077  -6.005  1.00  0.00     0.085 A 
ATOM      3  C9  UNK     1      48.110  12.544  -5.075  1.00  0.00     0.085 A 
ATOM      4  C10 UNK     1      49.242  15.091  -5.180  1.00  0.00     0.074 A 
ATOM      5  C11 UNK     1      47.624  13.557  -4.249  1.00  0.00     0.074 A 
ATOM      6  C14 UNK     1      48.190  14.831  -4.301  1.00  0.00     0.071 A 
ENDROOT
BRANCH   1   7
ATOM      7  C4  UNK     1      49.670  11.744  -6.818  1.00  0.00     0.165 C 
ATOM      8  O1  UNK     1      50.682  11.092  -6.495  1.00  0.00    -0.292 OA
BRANCH   7   9
ATOM      9  C2  UNK     1      48.955  11.430  -8.143  1.00  0.00     0.088 C 
BRANCH   9  10
ATOM     10  C1  UNK     1      48.323  10.037  -8.172  1.00  0.00     0.046 C 
BRANCH  10  11
ATOM     11  C3  UNK     1      46.850  10.100  -8.483  1.00  0.00    -0.058 A 
ATOM     12  C6  UNK     1      46.124  11.223  -8.119  1.00  0.00     0.010 A 
ATOM     13  C12 UNK     1      44.760  11.282  -8.407  1.00  0.00     0.037 A 
ATOM     14  C15 UNK     1      44.138  10.214  -9.055  1.00  0.00     0.065 A 
ATOM     15  C13 UNK     1      44.880   9.089  -9.416  1.00  0.00     0.037 A 
ATOM     16  C7  UNK     1      46.243   9.031  -9.128  1.00  0.00     0.010 A 
BRANCH  14  17
ATOM     17  O5  UNK     1      42.808  10.271  -9.337  1.00  0.00    -0.361 OA
ATOM     18  H14 UNK     1      42.538  11.203  -9.397  1.00  0.00     0.217 HD
ENDBRANCH  14  17
ENDBRANCH  10  11
ENDBRANCH   9  10
ENDBRANCH   7   9
ENDBRANCH   1   7
BRANCH   2  19
ATOM     19  O2  UNK     1      50.756  14.353  -6.857  1.00  0.00    -0.360 OA
ATOM     20  H11 UNK     1      51.569  14.545  -6.361  1.00  0.00     0.217 HD
ENDBRANCH   2  19
BRANCH   3  21
ATOM     21  O3  UNK     1      47.542  11.306  -5.009  1.00  0.00    -0.360 OA
ATOM     22  H12 UNK     1      47.708  10.835  -5.843  1.00  0.00     0.217 HD
ENDBRANCH   3  21
BRANCH   6  23
ATOM     23  O4  UNK     1      47.717  15.819  -3.495  1.00  0.00    -0.361 OA
ATOM     24  H13 UNK     1      48.258  16.617  -3.623  1.00  0.00     0.217 HD
ENDBRANCH   6  23
TORSDOF 8
ENDMDL
MODEL 14
REMARK VINA RESULT:      -6.1      9.087     11.614
REMARK  8 active torsions:
REMARK  status: ('A' for Active; 'I' for Inactive)
REMARK    1  A    between atoms: O2_2  and  C8_13 
REMARK    2  A    between atoms: O3_3  and  C9_14 
REMARK    3  A    between atoms: O4_4  and  C14_19 
REMARK    4  A    between atoms: O5_5  and  C15_20 
REMARK    5  A    between atoms: C1_6  and  C2_7 
REMARK    6  A    between atoms: C1_6  and  C3_8 
REMARK    7  A    between atoms: C2_7  and  C4_9 
REMARK    8  A    between atoms: C4_9  and  C5_10 
ROOT
ATOM      1  C5  UNK     1      49.160  12.808  -5.957  1.00  0.00     0.076 A 
ATOM      2  C8  UNK     1      48.108  12.546  -5.080  1.00  0.00     0.085 A 
ATOM      3  C9  UNK     1      49.729  14.081  -6.003  1.00  0.00     0.085 A 
ATOM      4  C10 UNK     1      47.624  13.557  -4.250  1.00  0.00     0.074 A 
ATOM      5  C11 UNK     1      49.246  15.092  -5.173  1.00  0.00     0.074 A 
ATOM      6  C14 UNK     1      48.192  14.830  -4.296  1.00  0.00     0.071 A 
ENDROOT
BRANCH   1   7
ATOM      7  C4  UNK     1      49.666  11.750  -6.825  1.00  0.00     0.165 C 
ATOM      8  O1  UNK     1      50.678  11.096  -6.505  1.00  0.00    -0.292 OA
BRANCH   7   9
ATOM      9  C2  UNK     1      48.948  11.437  -8.148  1.00  0.00     0.088 C 
BRANCH   9  10
ATOM     10  C1  UNK     1      48.319  10.043  -8.180  1.00  0.00     0.046 C 
BRANCH  10  11
ATOM     11  C3  UNK     1      46.845  10.103  -8.490  1.00  0.00    -0.058 A 
ATOM     12  C6  UNK     1      46.239   9.034  -9.132  1.00  0.00     0.010 A 
ATOM     13  C12 UNK     1      44.875   9.090  -9.418  1.00  0.00     0.037 A 
ATOM     14  C15 UNK     1      44.132  10.216  -9.060  1.00  0.00     0.065 A 
ATOM     15  C13 UNK     1      44.755  11.285  -8.414  1.00  0.00     0.037 A 
ATOM     16  C7  UNK     1      46.118  11.228  -8.128  1.00  0.00     0.010 A 
BRANCH  14  17
ATOM     17  O5  UNK     1      42.802  10.270  -9.338  1.00  0.00    -0.361 OA
ATOM     18  H14 UNK     1      42.394   9.422  -9.094  1.00  0.00     0.217 HD
ENDBRANCH  14  17
ENDBRANCH  10  11
ENDBRANCH   9  10
ENDBRANCH   7   9
ENDBRANCH   1   7
BRANCH   2  19
ATOM     19  O2  UNK     1      47.537  11.310  -5.018  1.00  0.00    -0.360 OA
ATOM     20  H11 UNK     1      47.322  11.077  -4.101  1.00  0.00     0.217 HD
ENDBRANCH   2  19
BRANCH   3  21
ATOM     21  O3  UNK     1      50.759  14.357  -6.853  1.00  0.00    -0.360 OA
ATOM     22  H12 UNK     1      51.369  14.980  -6.421  1.00  0.00     0.217 HD
ENDBRANCH   3  21
BRANCH   6  23
ATOM     23  O4  UNK     1      47.720  15.817  -3.487  1.00  0.00    -0.361 OA
ATOM     24  H13 UNK     1      47.289  16.494  -4.035  1.00  0.00     0.217 HD
ENDBRANCH   6  23
TORSDOF 8
ENDMDL
MODEL 15
REMARK VINA RESULT:      -6.0      9.322     11.586
REMARK  8 active torsions:
REMARK  status: ('A' for Active; 'I' for Inactive)
REMARK    1  A    between atoms: O2_2  and  C8_13 
REMARK    2  A    between atoms: O3_3  and  C9_14 
REMARK    3  A    between atoms: O4_4  and  C14_19 
REMARK    4  A    between atoms: O5_5  and  C15_20 
REMARK    5  A    between atoms: C1_6  and  C2_7 
REMARK    6  A    between atoms: C1_6  and  C3_8 
REMARK    7  A    between atoms: C2_7  and  C4_9 
REMARK    8  A    between atoms: C4_9  and  C5_10 
ROOT
ATOM      1  C5  UNK     1      50.596  10.527  -5.666  1.00  0.00     0.076 A 
ATOM      2  C8  UNK     1      49.732   9.992  -4.711  1.00  0.00     0.085 A 
ATOM      3  C9  UNK     1      51.643  11.359  -5.271  1.00  0.00     0.085 A 
ATOM      4  C10 UNK     1      49.914  10.290  -3.360  1.00  0.00     0.074 A 
ATOM      5  C11 UNK     1      51.827  11.657  -3.921  1.00  0.00     0.074 A 
ATOM      6  C14 UNK     1      50.962  11.122  -2.965  1.00  0.00     0.071 A 
ENDROOT
BRANCH   1   7
ATOM      7  C4  UNK     1      50.404  10.214  -7.078  1.00  0.00     0.165 C 
ATOM      8  O1  UNK     1      50.632   9.068  -7.511  1.00  0.00    -0.292 OA
BRANCH   7   9
ATOM      9  C2  UNK     1      49.918  11.308  -8.044  1.00  0.00     0.088 C 
BRANCH   9  10
ATOM     10  C1  UNK     1      48.491  11.779  -7.755  1.00  0.00     0.046 C 
BRANCH  10  11
ATOM     11  C3  UNK     1      48.440  12.706  -6.568  1.00  0.00    -0.058 A 
ATOM     12  C6  UNK     1      47.590  12.415  -5.512  1.00  0.00     0.010 A 
ATOM     13  C12 UNK     1      47.543  13.273  -4.412  1.00  0.00     0.037 A 
ATOM     14  C15 UNK     1      48.347  14.413  -4.383  1.00  0.00     0.065 A 
ATOM     15  C13 UNK     1      49.198  14.694  -5.452  1.00  0.00     0.037 A 
ATOM     16  C7  UNK     1      49.245  13.836  -6.550  1.00  0.00     0.010 A 
BRANCH  14  17
ATOM     17  O5  UNK     1      48.302  15.249  -3.310  1.00  0.00    -0.361 OA
ATOM     18  H14 UNK     1      48.277  14.717  -2.497  1.00  0.00     0.217 HD
ENDBRANCH  14  17
ENDBRANCH  10  11
ENDBRANCH   9  10
ENDBRANCH   7   9
ENDBRANCH   1   7
BRANCH   2  19
ATOM     19  O2  UNK     1      48.702   9.177  -5.074  1.00  0.00    -0.360 OA
ATOM     20  H11 UNK     1      47.942   9.699  -5.379  1.00  0.00     0.217 HD
ENDBRANCH   2  19
BRANCH   3  21
ATOM     21  O3  UNK     1      52.499  11.891  -6.189  1.00  0.00    -0.360 OA
ATOM     22  H12 UNK     1      52.669  12.823  -5.964  1.00  0.00     0.217 HD
ENDBRANCH   3  21
BRANCH   6  23
ATOM     23  O4  UNK     1      51.140  11.414  -1.648  1.00  0.00    -0.361 OA
ATOM     24  H13 UNK     1      51.614  12.260  -1.574  1.00  0.00     0.217 HD
ENDBRANCH   6  23
TORSDOF 8
ENDMDL
MODEL 16
REMARK VINA RESULT:      -5.9      9.339     11.498
REMARK  8 active torsions:
REMARK  status: ('A' for Active; 'I' for Inactive)
REMARK    1  A    between atoms: O2_2  and  C8_13 
REMARK    2  A    between atoms: O3_3  and  C9_14 
REMARK    3  A    between atoms: O4_4  and  C14_19 
REMARK    4  A    between atoms: O5_5  and  C15_20 
REMARK    5  A    between atoms: C1_6  and  C2_7 
REMARK    6  A    between atoms: C1_6  and  C3_8 
REMARK    7  A    between atoms: C2_7  and  C4_9 
REMARK    8  A    between atoms: C4_9  and  C5_10 
ROOT
ATOM      1  C5  UNK     1      50.636  10.525  -5.627  1.00  0.00     0.076 A 
ATOM      2  C8  UNK     1      51.681  11.353  -5.217  1.00  0.00     0.085 A 
ATOM      3  C9  UNK     1      49.756   9.995  -4.684  1.00  0.00     0.085 A 
ATOM      4  C10 UNK     1      51.847  11.649  -3.864  1.00  0.00     0.074 A 
ATOM      5  C11 UNK     1      49.920  10.291  -3.331  1.00  0.00     0.074 A 
ATOM      6  C14 UNK     1      50.967  11.119  -2.921  1.00  0.00     0.071 A 
ENDROOT
BRANCH   1   7
ATOM      7  C4  UNK     1      50.463  10.216  -7.042  1.00  0.00     0.165 C 
ATOM      8  O1  UNK     1      50.695   9.071  -7.475  1.00  0.00    -0.292 OA
BRANCH   7   9
ATOM      9  C2  UNK     1      49.992  11.313  -8.012  1.00  0.00     0.088 C 
BRANCH   9  10
ATOM     10  C1  UNK     1      48.560  11.781  -7.747  1.00  0.00     0.046 C 
BRANCH  10  11
ATOM     11  C3  UNK     1      48.488  12.709  -6.562  1.00  0.00    -0.058 A 
ATOM     12  C6  UNK     1      47.623  12.417  -5.519  1.00  0.00     0.010 A 
ATOM     13  C12 UNK     1      47.556  13.277  -4.421  1.00  0.00     0.037 A 
ATOM     14  C15 UNK     1      48.355  14.420  -4.382  1.00  0.00     0.065 A 
ATOM     15  C13 UNK     1      49.221  14.703  -5.439  1.00  0.00     0.037 A 
ATOM     16  C7  UNK     1      49.287  13.843  -6.535  1.00  0.00     0.010 A 
BRANCH  14  17
ATOM     17  O5  UNK     1      48.291  15.258  -3.312  1.00  0.00    -0.361 OA
ATOM     18  H14 UNK     1      47.380  15.584  -3.220  1.00  0.00     0.217 HD
ENDBRANCH  14  17
ENDBRANCH  10  11
ENDBRANCH   9  10
ENDBRANCH   7   9
ENDBRANCH   1   7
BRANCH   2  19
ATOM     19  O2  UNK     1      52.553  11.882  -6.122  1.00  0.00    -0.360 OA
ATOM     20  H11 UNK     1      52.491  11.415  -6.971  1.00  0.00     0.217 HD
ENDBRANCH   2  19
BRANCH   3  21
ATOM     21  O3  UNK     1      48.726   9.185  -5.063  1.00  0.00    -0.360 OA
ATOM     22  H12 UNK     1      47.925   9.438  -4.573  1.00  0.00     0.217 HD
ENDBRANCH   3  21
BRANCH   6  23
ATOM     23  O4  UNK     1      51.128  11.407  -1.601  1.00  0.00    -0.361 OA
ATOM     24  H13 UNK     1      50.324  11.147  -1.121  1.00  0.00     0.217 HD
ENDBRANCH   6  23
TORSDOF 8
ENDMDL
MODEL 17
REMARK VINA RESULT:      -5.8      9.553     10.816
REMARK  8 active torsions:
REMARK  status: ('A' for Active; 'I' for Inactive)
REMARK    1  A    between atoms: O2_2  and  C8_13 
REMARK    2  A    between atoms: O3_3  and  C9_14 
REMARK    3  A    between atoms: O4_4  and  C14_19 
REMARK    4  A    between atoms: O5_5  and  C15_20 
REMARK    5  A    between atoms: C1_6  and  C2_7 
REMARK    6  A    between atoms: C1_6  and  C3_8 
REMARK    7  A    between atoms: C2_7  and  C4_9 
REMARK    8  A    between atoms: C4_9  and  C5_10 
ROOT
ATOM      1  C5  UNK     1      44.570  10.286  -9.886  1.00  0.00     0.076 A 
ATOM      2  C8  UNK     1      44.629   8.922  -9.601  1.00  0.00     0.085 A 
ATOM      3  C9  UNK     1      43.437  10.821 -10.499  1.00  0.00     0.085 A 
ATOM      4  C10 UNK     1      43.557   8.093  -9.930  1.00  0.00     0.074 A 
ATOM      5  C11 UNK     1      42.364   9.994 -10.828  1.00  0.00     0.074 A 
ATOM      6  C14 UNK     1      42.424   8.629 -10.543  1.00  0.00     0.071 A 
ENDROOT
BRANCH   1   7
ATOM      7  C4  UNK     1      45.692  11.151  -9.542  1.00  0.00     0.165 C 
ATOM      8  O1  UNK     1      46.472  11.561 -10.423  1.00  0.00    -0.292 OA
BRANCH   7   9
ATOM      9  C2  UNK     1      45.920  11.562  -8.077  1.00  0.00     0.088 C 
BRANCH   9  10
ATOM     10  C1  UNK     1      47.360  11.347  -7.606  1.00  0.00     0.046 C 
BRANCH  10  11
ATOM     11  C3  UNK     1      47.717  12.269  -6.469  1.00  0.00    -0.058 A 
ATOM     12  C6  UNK     1      47.504  11.855  -5.163  1.00  0.00     0.010 A 
ATOM     13  C12 UNK     1      47.835  12.708  -4.110  1.00  0.00     0.037 A 
ATOM     14  C15 UNK     1      48.375  13.967  -4.376  1.00  0.00     0.065 A 
ATOM     15  C13 UNK     1      48.584  14.372  -5.694  1.00  0.00     0.037 A 
ATOM     16  C7  UNK     1      48.254  13.518  -6.747  1.00  0.00     0.010 A 
BRANCH  14  17
ATOM     17  O5  UNK     1      48.699  14.799  -3.349  1.00  0.00    -0.361 OA
ATOM     18  H14 UNK     1      49.402  14.387  -2.819  1.00  0.00     0.217 HD
ENDBRANCH  14  17
ENDBRANCH  10  11
ENDBRANCH   9  10
ENDBRANCH   7   9
ENDBRANCH   1   7
BRANCH   2  19
ATOM     19  O2  UNK     1      45.726   8.377  -9.002  1.00  0.00    -0.360 OA
ATOM     20  H11 UNK     1      45.898   8.805  -8.149  1.00  0.00     0.217 HD
ENDBRANCH   2  19
BRANCH   3  21
ATOM     21  O3  UNK     1      43.359  12.152 -10.785  1.00  0.00    -0.360 OA
ATOM     22  H12 UNK     1      42.900  12.268 -11.635  1.00  0.00     0.217 HD
ENDBRANCH   3  21
BRANCH   6  23
ATOM     23  O4  UNK     1      41.377   7.821 -10.865  1.00  0.00    -0.361 OA
ATOM     24  H13 UNK     1      40.822   7.695 -10.076  1.00  0.00     0.217 HD
ENDBRANCH   6  23
TORSDOF 8
ENDMDL
MODEL 18
REMARK VINA RESULT:      -5.7      9.538     10.905
REMARK  8 active torsions:
REMARK  status: ('A' for Active; 'I' for Inactive)
REMARK    1  A    between atoms: O2_2  and  C8_13 
REMARK    2  A    between atoms: O3_3  and  C9_14 
REMARK    3  A    between atoms: O4_4  and  C14_19 
REMARK    4  A    between atoms: O5_5  and  C15_20 
REMARK    5  A    between atoms: C1_6  and  C2_7 
REMARK    6  A    between atoms: C1_6  and  C3_8 
REMARK    7  A    between atoms: C2_7  and  C4_9 
REMARK    8  A    between atoms: C4_9  and  C5_10 
ROOT
ATOM      1  C5  UNK     1      44.602  10.277  -9.850  1.00  0.00     0.076 A 
ATOM      2  C8  UNK     1      43.461  10.792 -10.465  1.00  0.00     0.085 A 
ATOM      3  C9  UNK     1      44.697   8.909  -9.591  1.00  0.00     0.085 A 
ATOM      4  C10 UNK     1      42.415   9.941 -10.821  1.00  0.00     0.074 A 
ATOM      5  C11 UNK     1      43.652   8.057  -9.947  1.00  0.00     0.074 A 
ATOM      6  C14 UNK     1      42.510   8.573 -10.562  1.00  0.00     0.071 A 
ENDROOT
BRANCH   1   7
ATOM      7  C4  UNK     1      45.695  11.168  -9.479  1.00  0.00     0.165 C 
ATOM      8  O1  UNK     1      46.415  11.688 -10.353  1.00  0.00    -0.292 OA
BRANCH   7   9
ATOM      9  C2  UNK     1      45.967  11.467  -7.995  1.00  0.00     0.088 C 
BRANCH   9  10
ATOM     10  C1  UNK     1      47.450  11.386  -7.624  1.00  0.00     0.046 C 
BRANCH  10  11
ATOM     11  C3  UNK     1      47.788  12.303  -6.477  1.00  0.00    -0.058 A 
ATOM     12  C6  UNK     1      47.488  11.913  -5.181  1.00  0.00     0.010 A 
ATOM     13  C12 UNK     1      47.801  12.761  -4.119  1.00  0.00     0.037 A 
ATOM     14  C15 UNK     1      48.410  13.992  -4.366  1.00  0.00     0.065 A 
ATOM     15  C13 UNK     1      48.706  14.374  -5.675  1.00  0.00     0.037 A 
ATOM     16  C7  UNK     1      48.393  13.524  -6.736  1.00  0.00     0.010 A 
BRANCH  14  17
ATOM     17  O5  UNK     1      48.717  14.819  -3.330  1.00  0.00    -0.361 OA
ATOM     18  H14 UNK     1      48.596  15.741  -3.616  1.00  0.00     0.217 HD
ENDBRANCH  14  17
ENDBRANCH  10  11
ENDBRANCH   9  10
ENDBRANCH   7   9
ENDBRANCH   1   7
BRANCH   2  19
ATOM     19  O2  UNK     1      43.347  12.125 -10.728  1.00  0.00    -0.360 OA
ATOM     20  H11 UNK     1      44.066  12.422 -11.308  1.00  0.00     0.217 HD
ENDBRANCH   2  19
BRANCH   3  21
ATOM     21  O3  UNK     1      45.803   8.385  -8.992  1.00  0.00    -0.360 OA
ATOM     22  H12 UNK     1      46.535   8.369  -9.633  1.00  0.00     0.217 HD
ENDBRANCH   3  21
BRANCH   6  23
ATOM     23  O4  UNK     1      41.490   7.742 -10.908  1.00  0.00    -0.361 OA
ATOM     24  H13 UNK     1      41.810   6.824 -10.888  1.00  0.00     0.217 HD
ENDBRANCH   6  23
TORSDOF 8
ENDMDL
MODEL 19
REMARK VINA RESULT:      -5.6      9.882     11.816
REMARK  8 active torsions:
REMARK  status: ('A' for Active; 'I' for Inactive)
REMARK    1  A    between atoms: O2_2  and  C8_13 
REMARK    2  A    between atoms: O3_3  and  C9_14 
REMARK    3  A    between atoms: O4_4  and  C14_19 
REMARK    4  A    between atoms: O5_5  and  C15_20 
REMARK    5  A    between atoms: C1_6  and  C2_7 
REMARK    6  A    between atoms: C1_6  and  C3_8 
REMARK    7  A    between atoms: C2_7  and  C4_9 
REMARK    8  A    between atoms: C4_9  and  C5_10 
ROOT
ATOM      1  C5  UNK     1      49.553  11.762  -4.819  1.00  0.00     0.076 A 
ATOM      2  C8  UNK     1      49.625  10.370  -4.802  1.00  0.00     0.085 A 
ATOM      3  C9  UNK     1      50.714  12.522  -4.678  1.00  0.00     0.085 A 
ATOM      4  C10 UNK     1      50.858   9.737  -4.643  1.00  0.00     0.074 A 
ATOM      5  C11 UNK     1      51.947  11.890  -4.520  1.00  0.00     0.074 A 
ATOM      6  C14 UNK     1      52.019  10.497  -4.502  1.00  0.00     0.071 A 
ENDROOT
BRANCH   1   7
ATOM      7  C4  UNK     1      48.263  12.423  -4.986  1.00  0.00     0.165 C 
ATOM      8  O1  UNK     1      47.435  12.442  -4.055  1.00  0.00    -0.292 OA
BRANCH   7   9
ATOM      9  C2  UNK     1      47.919  13.101  -6.323  1.00  0.00     0.088 C 
BRANCH   9  10
ATOM     10  C1  UNK     1      48.313  12.266  -7.543  1.00  0.00     0.046 C 
BRANCH  10  11
ATOM     11  C3  UNK     1      47.215  11.317  -7.948  1.00  0.00    -0.058 A 
ATOM     12  C6  UNK     1      45.895  11.735  -7.883  1.00  0.00     0.010 A 
ATOM     13  C12 UNK     1      44.878  10.857  -8.259  1.00  0.00     0.037 A 
ATOM     14  C15 UNK     1      45.194   9.569  -8.693  1.00  0.00     0.065 A 
ATOM     15  C13 UNK     1      46.526   9.160  -8.752  1.00  0.00     0.037 A 
ATOM     16  C7  UNK     1      47.543  10.039  -8.378  1.00  0.00     0.010 A 
BRANCH  14  17
ATOM     17  O5  UNK     1      44.202   8.713  -9.060  1.00  0.00    -0.361 OA
ATOM     18  H14 UNK     1      43.344   9.110  -8.837  1.00  0.00     0.217 HD
ENDBRANCH  14  17
ENDBRANCH  10  11
ENDBRANCH   9  10
ENDBRANCH   7   9
ENDBRANCH   1   7
BRANCH   2  19
ATOM     19  O2  UNK     1      48.503   9.607  -4.939  1.00  0.00    -0.360 OA
ATOM     20  H11 UNK     1      48.128   9.391  -4.070  1.00  0.00     0.217 HD
ENDBRANCH   2  19
BRANCH   3  21
ATOM     21  O3  UNK     1      50.666  13.885  -4.693  1.00  0.00    -0.360 OA
ATOM     22  H12 UNK     1      49.810  14.169  -5.058  1.00  0.00     0.217 HD
ENDBRANCH   3  21
BRANCH   6  23
ATOM     23  O4  UNK     1      53.222   9.880  -4.346  1.00  0.00    -0.361 OA
ATOM     24  H13 UNK     1      53.247   9.454  -3.472  1.00  0.00     0.217 HD
ENDBRANCH   6  23
TORSDOF 8
ENDMDL
MODEL 20
REMARK VINA RESULT:      -5.6      9.897     11.808
REMARK  8 active torsions:
REMARK  status: ('A' for Active; 'I' for Inactive)
REMARK    1  A    between atoms: O2_2  and  C8_13 
REMARK    2  A    between atoms: O3_3  and  C9_14 
REMARK    3  A    between atoms: O4_4  and  C14_19 
REMARK    4  A    between atoms: O5_5  and  C15_20 
REMARK    5  A    between atoms: C1_6  and  C2_7 
REMARK    6  A    between atoms: C1_6  and  C3_8 
REMARK    7  A    between atoms: C2_7  and  C4_9 
REMARK    8  A    between atoms: C4_9  and  C5_10 
ROOT
ATOM      1  C5  UNK     1      49.529  11.737  -4.819  1.00  0.00     0.076 A 
ATOM      2  C8  UNK     1      50.673  12.514  -4.641  1.00  0.00     0.085 A 
ATOM      3  C9  UNK     1      49.624  10.345  -4.812  1.00  0.00     0.085 A 
ATOM      4  C10 UNK     1      51.912  11.900  -4.456  1.00  0.00     0.074 A 
ATOM      5  C11 UNK     1      50.861   9.731  -4.627  1.00  0.00     0.074 A 
ATOM      6  C14 UNK     1      52.007  10.509  -4.449  1.00  0.00     0.071 A 
ENDROOT
BRANCH   1   7
ATOM      7  C4  UNK     1      48.234  12.380  -5.012  1.00  0.00     0.165 C 
ATOM      8  O1  UNK     1      47.387  12.389  -4.098  1.00  0.00    -0.292 OA
BRANCH   7   9
ATOM      9  C2  UNK     1      47.906  13.052  -6.356  1.00  0.00     0.088 C 
BRANCH   9  10
ATOM     10  C1  UNK     1      48.307  12.207  -7.568  1.00  0.00     0.046 C 
BRANCH  10  11
ATOM     11  C3  UNK     1      47.205  11.263  -7.977  1.00  0.00    -0.058 A 
ATOM     12  C6  UNK     1      47.525   9.973  -8.373  1.00  0.00     0.010 A 
ATOM     13  C12 UNK     1      46.505   9.099  -8.752  1.00  0.00     0.037 A 
ATOM     14  C15 UNK     1      45.177   9.527  -8.730  1.00  0.00     0.065 A 
ATOM     15  C13 UNK     1      44.869  10.827  -8.329  1.00  0.00     0.037 A 
ATOM     16  C7  UNK     1      45.889  11.700  -7.951  1.00  0.00     0.010 A 
BRANCH  14  17
ATOM     17  O5  UNK     1      44.182   8.674  -9.098  1.00  0.00    -0.361 OA
ATOM     18  H14 UNK     1      43.417   9.193  -9.398  1.00  0.00     0.217 HD
ENDBRANCH  14  17
ENDBRANCH  10  11
ENDBRANCH   9  10
ENDBRANCH   7   9
ENDBRANCH   1   7
BRANCH   2  19
ATOM     19  O2  UNK     1      50.604  13.876  -4.644  1.00  0.00    -0.360 OA
ATOM     20  H11 UNK     1      51.493  14.264  -4.650  1.00  0.00     0.217 HD
ENDBRANCH   2  19
BRANCH   3  21
ATOM     21  O3  UNK     1      48.517   9.567  -4.984  1.00  0.00    -0.360 OA
ATOM     22  H12 UNK     1      48.056   9.477  -4.132  1.00  0.00     0.217 HD
ENDBRANCH   3  21
BRANCH   6  23
ATOM     23  O4  UNK     1      53.215   9.909  -4.270  1.00  0.00    -0.361 OA
ATOM     24  H13 UNK     1      53.088   9.094  -3.754  1.00  0.00     0.217 HD
ENDBRANCH   6  23
TORSDOF 8
ENDMDL
