MODEL 1
REMARK VINA RESULT:      -6.0      0.000      0.000
REMARK  8 active torsions:
REMARK  status: ('A' for Active; 'I' for Inactive)
REMARK    1  A    between atoms: O2_2  and  C8_13 
REMARK    2  A    between atoms: O3_3  and  C9_14 
REMARK    3  A    between atoms: O4_4  and  C14_19 
REMARK    4  A    between atoms: O5_5  and  C15_20 
REMARK    5  A    between atoms: C1_6  and  C2_7 
REMARK    6  A    between atoms: C1_6  and  C3_8 
REMARK    7  A    between atoms: C2_7  and  C4_9 
REMARK    8  A    between atoms: C4_9  and  C5_10 
ROOT
ATOM      1  C5  UNK     1      40.976  19.437  11.516  1.00  0.00     0.076 A 
ATOM      2  C8  UNK     1      40.234  18.995  12.611  1.00  0.00     0.085 A 
ATOM      3  C9  UNK     1      42.161  18.789  11.169  1.00  0.00     0.085 A 
ATOM      4  C10 UNK     1      40.678  17.906  13.360  1.00  0.00     0.074 A 
ATOM      5  C11 UNK     1      42.605  17.699  11.917  1.00  0.00     0.074 A 
ATOM      6  C14 UNK     1      41.863  17.257  13.014  1.00  0.00     0.071 A 
ENDROOT
BRANCH   1   7
ATOM      7  C4  UNK     1      40.511  20.577  10.733  1.00  0.00     0.165 C 
ATOM      8  O1  UNK     1      39.834  20.404   9.701  1.00  0.00    -0.292 OA
BRANCH   7   9
ATOM      9  C2  UNK     1      40.861  22.006  11.180  1.00  0.00     0.088 C 
BRANCH   9  10
ATOM     10  C1  UNK     1      42.264  22.446  10.755  1.00  0.00     0.046 C 
BRANCH  10  11
ATOM     11  C3  UNK     1      42.530  23.885  11.116  1.00  0.00    -0.058 A 
ATOM     12  C6  UNK     1      41.852  24.457  12.182  1.00  0.00     0.010 A 
ATOM     13  C12 UNK     1      42.098  25.789  12.516  1.00  0.00     0.037 A 
ATOM     14  C15 UNK     1      43.019  26.534  11.778  1.00  0.00     0.065 A 
ATOM     15  C13 UNK     1      43.694  25.946  10.708  1.00  0.00     0.037 A 
ATOM     16  C7  UNK     1      43.448  24.615  10.375  1.00  0.00     0.010 A 
BRANCH  14  17
ATOM     17  O5  UNK     1      43.261  27.832  12.105  1.00  0.00    -0.361 OA
ATOM     18  H14 UNK     1      43.055  28.394  11.339  1.00  0.00     0.217 HD
ENDBRANCH  14  17
ENDBRANCH  10  11
ENDBRANCH   9  10
ENDBRANCH   7   9
ENDBRANCH   1   7
BRANCH   2  19
ATOM     19  O2  UNK     1      39.073  19.614  12.967  1.00  0.00    -0.360 OA
ATOM     20  H11 UNK     1      38.388  18.961  13.180  1.00  0.00     0.217 HD
ENDBRANCH   2  19
BRANCH   3  21
ATOM     21  O3  UNK     1      42.901  19.204  10.102  1.00  0.00    -0.360 OA
ATOM     22  H12 UNK     1      43.800  19.423  10.403  1.00  0.00     0.217 HD
ENDBRANCH   3  21
BRANCH   6  23
ATOM     23  O4  UNK     1      42.297  16.194  13.744  1.00  0.00    -0.361 OA
ATOM     24  H13 UNK     1      41.722  16.091  14.522  1.00  0.00     0.217 HD
ENDBRANCH   6  23
TORSDOF 8
ENDMDL
MODEL 2
REMARK VINA RESULT:      -6.0      0.002      1.863
REMARK  8 active torsions:
REMARK  status: ('A' for Active; 'I' for Inactive)
REMARK    1  A    between atoms: O2_2  and  C8_13 
REMARK    2  A    between atoms: O3_3  and  C9_14 
REMARK    3  A    between atoms: O4_4  and  C14_19 
REMARK    4  A    between atoms: O5_5  and  C15_20 
REMARK    5  A    between atoms: C1_6  and  C2_7 
REMARK    6  A    between atoms: C1_6  and  C3_8 
REMARK    7  A    between atoms: C2_7  and  C4_9 
REMARK    8  A    between atoms: C4_9  and  C5_10 
ROOT
ATOM      1  C5  UNK     1      40.973  19.438  11.517  1.00  0.00     0.076 A 
ATOM      2  C8  UNK     1      42.159  18.790  11.169  1.00  0.00     0.085 A 
ATOM      3  C9  UNK     1      40.233  18.995  12.613  1.00  0.00     0.085 A 
ATOM      4  C10 UNK     1      42.604  17.700  11.917  1.00  0.00     0.074 A 
ATOM      5  C11 UNK     1      40.677  17.906  13.361  1.00  0.00     0.074 A 
ATOM      6  C14 UNK     1      41.864  17.258  13.013  1.00  0.00     0.071 A 
ENDROOT
BRANCH   1   7
ATOM      7  C4  UNK     1      40.509  20.577  10.734  1.00  0.00     0.165 C 
ATOM      8  O1  UNK     1      39.832  20.406   9.702  1.00  0.00    -0.292 OA
BRANCH   7   9
ATOM      9  C2  UNK     1      40.860  22.006  11.182  1.00  0.00     0.088 C 
BRANCH   9  10
ATOM     10  C1  UNK     1      42.262  22.446  10.755  1.00  0.00     0.046 C 
BRANCH  10  11
ATOM     11  C3  UNK     1      42.529  23.885  11.116  1.00  0.00    -0.058 A 
ATOM     12  C6  UNK     1      41.851  24.457  12.182  1.00  0.00     0.010 A 
ATOM     13  C12 UNK     1      42.098  25.789  12.516  1.00  0.00     0.037 A 
ATOM     14  C15 UNK     1      43.020  26.534  11.780  1.00  0.00     0.065 A 
ATOM     15  C13 UNK     1      43.695  25.946  10.709  1.00  0.00     0.037 A 
ATOM     16  C7  UNK     1      43.448  24.614  10.376  1.00  0.00     0.010 A 
BRANCH  14  17
ATOM     17  O5  UNK     1      43.262  27.832  12.107  1.00  0.00    -0.361 OA
ATOM     18  H14 UNK     1      42.610  28.117  12.768  1.00  0.00     0.217 HD
ENDBRANCH  14  17
ENDBRANCH  10  11
ENDBRANCH   9  10
ENDBRANCH   7   9
ENDBRANCH   1   7
BRANCH   2  19
ATOM     19  O2  UNK     1      42.899  19.206  10.102  1.00  0.00    -0.360 OA
ATOM     20  H11 UNK     1      42.324  19.420   9.350  1.00  0.00     0.217 HD
ENDBRANCH   2  19
BRANCH   3  21
ATOM     21  O3  UNK     1      39.072  19.614  12.970  1.00  0.00    -0.360 OA
ATOM     22  H12 UNK     1      38.986  19.595  13.939  1.00  0.00     0.217 HD
ENDBRANCH   3  21
BRANCH   6  23
ATOM     23  O4  UNK     1      42.297  16.194  13.743  1.00  0.00    -0.361 OA
ATOM     24  H13 UNK     1      43.182  16.392  14.094  1.00  0.00     0.217 HD
ENDBRANCH   6  23
TORSDOF 8
ENDMDL
MODEL 3
REMARK VINA RESULT:      -5.8      4.289      7.189
REMARK  8 active torsions:
REMARK  status: ('A' for Active; 'I' for Inactive)
REMARK    1  A    between atoms: O2_2  and  C8_13 
REMARK    2  A    between atoms: O3_3  and  C9_14 
REMARK    3  A    between atoms: O4_4  and  C14_19 
REMARK    4  A    between atoms: O5_5  and  C15_20 
REMARK    5  A    between atoms: C1_6  and  C2_7 
REMARK    6  A    between atoms: C1_6  and  C3_8 
REMARK    7  A    between atoms: C2_7  and  C4_9 
REMARK    8  A    between atoms: C4_9  and  C5_10 
ROOT
ATOM      1  C5  UNK     1      41.588  25.445  12.642  1.00  0.00     0.076 A 
ATOM      2  C8  UNK     1      42.077  26.693  12.257  1.00  0.00     0.085 A 
ATOM      3  C9  UNK     1      42.031  24.292  11.993  1.00  0.00     0.085 A 
ATOM      4  C10 UNK     1      43.007  26.789  11.222  1.00  0.00     0.074 A 
ATOM      5  C11 UNK     1      42.961  24.387  10.959  1.00  0.00     0.074 A 
ATOM      6  C14 UNK     1      43.449  25.636  10.573  1.00  0.00     0.071 A 
ENDROOT
BRANCH   1   7
ATOM      7  C4  UNK     1      40.616  25.345  13.725  1.00  0.00     0.165 C 
ATOM      8  O1  UNK     1      40.967  24.979  14.863  1.00  0.00    -0.292 OA
BRANCH   7   9
ATOM      9  C2  UNK     1      39.141  25.693  13.462  1.00  0.00     0.088 C 
BRANCH   9  10
ATOM     10  C1  UNK     1      38.376  24.579  12.744  1.00  0.00     0.046 C 
BRANCH  10  11
ATOM     11  C3  UNK     1      37.369  25.133  11.769  1.00  0.00    -0.058 A 
ATOM     12  C6  UNK     1      37.410  26.479  11.438  1.00  0.00     0.010 A 
ATOM     13  C12 UNK     1      36.477  26.992  10.535  1.00  0.00     0.037 A 
ATOM     14  C15 UNK     1      35.513  26.152   9.976  1.00  0.00     0.065 A 
ATOM     15  C13 UNK     1      35.483  24.800  10.318  1.00  0.00     0.037 A 
ATOM     16  C7  UNK     1      36.416  24.287  11.220  1.00  0.00     0.010 A 
BRANCH  14  17
ATOM     17  O5  UNK     1      34.605  26.651   9.095  1.00  0.00    -0.361 OA
ATOM     18  H14 UNK     1      34.843  26.361   8.198  1.00  0.00     0.217 HD
ENDBRANCH  14  17
ENDBRANCH  10  11
ENDBRANCH   9  10
ENDBRANCH   7   9
ENDBRANCH   1   7
BRANCH   2  19
ATOM     19  O2  UNK     1      41.658  27.832  12.878  1.00  0.00    -0.360 OA
ATOM     20  H11 UNK     1      41.829  27.784  13.832  1.00  0.00     0.217 HD
ENDBRANCH   2  19
BRANCH   3  21
ATOM     21  O3  UNK     1      41.566  23.062  12.355  1.00  0.00    -0.360 OA
ATOM     22  H12 UNK     1      41.151  22.640  11.583  1.00  0.00     0.217 HD
ENDBRANCH   3  21
BRANCH   6  23
ATOM     23  O4  UNK     1      44.357  25.729   9.563  1.00  0.00    -0.361 OA
ATOM     24  H13 UNK     1      44.453  26.664   9.311  1.00  0.00     0.217 HD
ENDBRANCH   6  23
TORSDOF 8
ENDMDL
MODEL 4
REMARK VINA RESULT:      -5.8      3.852      4.654
REMARK  8 active torsions:
REMARK  status: ('A' for Active; 'I' for Inactive)
REMARK    1  A    between atoms: O2_2  and  C8_13 
REMARK    2  A    between atoms: O3_3  and  C9_14 
REMARK    3  A    between atoms: O4_4  and  C14_19 
REMARK    4  A    between atoms: O5_5  and  C15_20 
REMARK    5  A    between atoms: C1_6  and  C2_7 
REMARK    6  A    between atoms: C1_6  and  C3_8 
REMARK    7  A    between atoms: C2_7  and  C4_9 
REMARK    8  A    between atoms: C4_9  and  C5_10 
ROOT
ATOM      1  C5  UNK     1      39.712  20.108  11.715  1.00  0.00     0.076 A 
ATOM      2  C8  UNK     1      39.824  19.230  12.792  1.00  0.00     0.085 A 
ATOM      3  C9  UNK     1      40.691  20.122  10.722  1.00  0.00     0.085 A 
ATOM      4  C10 UNK     1      40.916  18.366  12.877  1.00  0.00     0.074 A 
ATOM      5  C11 UNK     1      41.783  19.259  10.806  1.00  0.00     0.074 A 
ATOM      6  C14 UNK     1      41.895  18.380  11.884  1.00  0.00     0.071 A 
ENDROOT
BRANCH   1   7
ATOM      7  C4  UNK     1      38.569  21.011  11.627  1.00  0.00     0.165 C 
ATOM      8  O1  UNK     1      37.422  20.566  11.430  1.00  0.00    -0.292 OA
BRANCH   7   9
ATOM      9  C2  UNK     1      38.780  22.527  11.775  1.00  0.00     0.088 C 
BRANCH   9  10
ATOM     10  C1  UNK     1      37.632  23.228  12.504  1.00  0.00     0.046 C 
BRANCH  10  11
ATOM     11  C3  UNK     1      36.895  24.181  11.598  1.00  0.00    -0.058 A 
ATOM     12  C6  UNK     1      37.157  25.540  11.681  1.00  0.00     0.010 A 
ATOM     13  C12 UNK     1      36.476  26.422  10.842  1.00  0.00     0.037 A 
ATOM     14  C15 UNK     1      35.538  25.934   9.931  1.00  0.00     0.065 A 
ATOM     15  C13 UNK     1      35.283  24.565   9.859  1.00  0.00     0.037 A 
ATOM     16  C7  UNK     1      35.966  23.683  10.697  1.00  0.00     0.010 A 
BRANCH  14  17
ATOM     17  O5  UNK     1      34.874  26.794   9.112  1.00  0.00    -0.361 OA
ATOM     18  H14 UNK     1      35.295  27.669   9.165  1.00  0.00     0.217 HD
ENDBRANCH  14  17
ENDBRANCH  10  11
ENDBRANCH   9  10
ENDBRANCH   7   9
ENDBRANCH   1   7
BRANCH   2  19
ATOM     19  O2  UNK     1      38.878  19.199  13.774  1.00  0.00    -0.360 OA
ATOM     20  H11 UNK     1      39.129  19.780  14.509  1.00  0.00     0.217 HD
ENDBRANCH   2  19
BRANCH   3  21
ATOM     21  O3  UNK     1      40.600  20.973   9.660  1.00  0.00    -0.360 OA
ATOM     22  H12 UNK     1      41.476  21.359   9.485  1.00  0.00     0.217 HD
ENDBRANCH   3  21
BRANCH   6  23
ATOM     23  O4  UNK     1      42.961  17.538  11.967  1.00  0.00    -0.361 OA
ATOM     24  H13 UNK     1      42.940  16.928  11.210  1.00  0.00     0.217 HD
ENDBRANCH   6  23
TORSDOF 8
ENDMDL
MODEL 5
REMARK VINA RESULT:      -5.8      4.274      7.213
REMARK  8 active torsions:
REMARK  status: ('A' for Active; 'I' for Inactive)
REMARK    1  A    between atoms: O2_2  and  C8_13 
REMARK    2  A    between atoms: O3_3  and  C9_14 
REMARK    3  A    between atoms: O4_4  and  C14_19 
REMARK    4  A    between atoms: O5_5  and  C15_20 
REMARK    5  A    between atoms: C1_6  and  C2_7 
REMARK    6  A    between atoms: C1_6  and  C3_8 
REMARK    7  A    between atoms: C2_7  and  C4_9 
REMARK    8  A    between atoms: C4_9  and  C5_10 
ROOT
ATOM      1  C5  UNK     1      41.600  25.419  12.620  1.00  0.00     0.076 A 
ATOM      2  C8  UNK     1      42.029  24.275  11.946  1.00  0.00     0.085 A 
ATOM      3  C9  UNK     1      42.092  26.671  12.251  1.00  0.00     0.085 A 
ATOM      4  C10 UNK     1      42.948  24.384  10.903  1.00  0.00     0.074 A 
ATOM      5  C11 UNK     1      43.012  26.780  11.209  1.00  0.00     0.074 A 
ATOM      6  C14 UNK     1      43.440  25.636  10.534  1.00  0.00     0.071 A 
ENDROOT
BRANCH   1   7
ATOM      7  C4  UNK     1      40.638  25.304  13.710  1.00  0.00     0.165 C 
ATOM      8  O1  UNK     1      41.000  24.922  14.840  1.00  0.00    -0.292 OA
BRANCH   7   9
ATOM      9  C2  UNK     1      39.161  25.655  13.466  1.00  0.00     0.088 C 
BRANCH   9  10
ATOM     10  C1  UNK     1      38.381  24.538  12.769  1.00  0.00     0.046 C 
BRANCH  10  11
ATOM     11  C3  UNK     1      37.369  25.087  11.797  1.00  0.00    -0.058 A 
ATOM     12  C6  UNK     1      37.389  26.437  11.482  1.00  0.00     0.010 A 
ATOM     13  C12 UNK     1      36.452  26.946  10.582  1.00  0.00     0.037 A 
ATOM     14  C15 UNK     1      35.504  26.097  10.009  1.00  0.00     0.065 A 
ATOM     15  C13 UNK     1      35.494  24.741  10.335  1.00  0.00     0.037 A 
ATOM     16  C7  UNK     1      36.432  24.233  11.234  1.00  0.00     0.010 A 
BRANCH  14  17
ATOM     17  O5  UNK     1      34.591  26.593   9.131  1.00  0.00    -0.361 OA
ATOM     18  H14 UNK     1      34.528  27.555   9.250  1.00  0.00     0.217 HD
ENDBRANCH  14  17
ENDBRANCH  10  11
ENDBRANCH   9  10
ENDBRANCH   7   9
ENDBRANCH   1   7
BRANCH   2  19
ATOM     19  O2  UNK     1      41.561  23.042  12.289  1.00  0.00    -0.360 OA
ATOM     20  H11 UNK     1      41.224  23.045  13.200  1.00  0.00     0.217 HD
ENDBRANCH   2  19
BRANCH   3  21
ATOM     21  O3  UNK     1      41.686  27.801  12.897  1.00  0.00    -0.360 OA
ATOM     22  H12 UNK     1      40.804  28.053  12.573  1.00  0.00     0.217 HD
ENDBRANCH   3  21
BRANCH   6  23
ATOM     23  O4  UNK     1      44.338  25.743   9.517  1.00  0.00    -0.361 OA
ATOM     24  H13 UNK     1      43.889  25.541   8.678  1.00  0.00     0.217 HD
ENDBRANCH   6  23
TORSDOF 8
ENDMDL
MODEL 6
REMARK VINA RESULT:      -5.8      3.855      4.933
REMARK  8 active torsions:
REMARK  status: ('A' for Active; 'I' for Inactive)
REMARK    1  A    between atoms: O2_2  and  C8_13 
REMARK    2  A    between atoms: O3_3  and  C9_14 
REMARK    3  A    between atoms: O4_4  and  C14_19 
REMARK    4  A    between atoms: O5_5  and  C15_20 
REMARK    5  A    between atoms: C1_6  and  C2_7 
REMARK    6  A    between atoms: C1_6  and  C3_8 
REMARK    7  A    between atoms: C2_7  and  C4_9 
REMARK    8  A    between atoms: C4_9  and  C5_10 
ROOT
ATOM      1  C5  UNK     1      39.710  20.115  11.713  1.00  0.00     0.076 A 
ATOM      2  C8  UNK     1      40.687  20.125  10.718  1.00  0.00     0.085 A 
ATOM      3  C9  UNK     1      39.826  19.241  12.794  1.00  0.00     0.085 A 
ATOM      4  C10 UNK     1      41.779  19.262  10.803  1.00  0.00     0.074 A 
ATOM      5  C11 UNK     1      40.917  18.377  12.880  1.00  0.00     0.074 A 
ATOM      6  C14 UNK     1      41.895  18.388  11.883  1.00  0.00     0.071 A 
ENDROOT
BRANCH   1   7
ATOM      7  C4  UNK     1      38.569  21.018  11.623  1.00  0.00     0.165 C 
ATOM      8  O1  UNK     1      37.422  20.575  11.419  1.00  0.00    -0.292 OA
BRANCH   7   9
ATOM      9  C2  UNK     1      38.779  22.534  11.778  1.00  0.00     0.088 C 
BRANCH   9  10
ATOM     10  C1  UNK     1      37.630  23.232  12.507  1.00  0.00     0.046 C 
BRANCH  10  11
ATOM     11  C3  UNK     1      36.894  24.187  11.602  1.00  0.00    -0.058 A 
ATOM     12  C6  UNK     1      37.167  25.544  11.676  1.00  0.00     0.010 A 
ATOM     13  C12 UNK     1      36.487  26.427  10.837  1.00  0.00     0.037 A 
ATOM     14  C15 UNK     1      35.538  25.942   9.936  1.00  0.00     0.065 A 
ATOM     15  C13 UNK     1      35.272  24.574   9.873  1.00  0.00     0.037 A 
ATOM     16  C7  UNK     1      35.953  23.692  10.710  1.00  0.00     0.010 A 
BRANCH  14  17
ATOM     17  O5  UNK     1      34.875  26.803   9.118  1.00  0.00    -0.361 OA
ATOM     18  H14 UNK     1      35.018  26.535   8.195  1.00  0.00     0.217 HD
ENDBRANCH  14  17
ENDBRANCH  10  11
ENDBRANCH   9  10
ENDBRANCH   7   9
ENDBRANCH   1   7
BRANCH   2  19
ATOM     19  O2  UNK     1      40.594  20.971   9.653  1.00  0.00    -0.360 OA
ATOM     20  H11 UNK     1      41.370  21.553   9.609  1.00  0.00     0.217 HD
ENDBRANCH   2  19
BRANCH   3  21
ATOM     21  O3  UNK     1      38.882  19.215  13.778  1.00  0.00    -0.360 OA
ATOM     22  H12 UNK     1      38.512  20.108  13.887  1.00  0.00     0.217 HD
ENDBRANCH   3  21
BRANCH   6  23
ATOM     23  O4  UNK     1      42.959  17.545  11.967  1.00  0.00    -0.361 OA
ATOM     24  H13 UNK     1      43.234  17.475  12.898  1.00  0.00     0.217 HD
ENDBRANCH   6  23
TORSDOF 8
ENDMDL
MODEL 7
REMARK VINA RESULT:      -5.7      3.981      6.999
REMARK  8 active torsions:
REMARK  status: ('A' for Active; 'I' for Inactive)
REMARK    1  A    between atoms: O2_2  and  C8_13 
REMARK    2  A    between atoms: O3_3  and  C9_14 
REMARK    3  A    between atoms: O4_4  and  C14_19 
REMARK    4  A    between atoms: O5_5  and  C15_20 
REMARK    5  A    between atoms: C1_6  and  C2_7 
REMARK    6  A    between atoms: C1_6  and  C3_8 
REMARK    7  A    between atoms: C2_7  and  C4_9 
REMARK    8  A    between atoms: C4_9  and  C5_10 
ROOT
ATOM      1  C5  UNK     1      41.948  25.559  12.139  1.00  0.00     0.076 A 
ATOM      2  C8  UNK     1      43.030  26.163  11.499  1.00  0.00     0.085 A 
ATOM      3  C9  UNK     1      41.768  24.178  12.050  1.00  0.00     0.085 A 
ATOM      4  C10 UNK     1      43.932  25.388  10.771  1.00  0.00     0.074 A 
ATOM      5  C11 UNK     1      42.669  23.403  11.322  1.00  0.00     0.074 A 
ATOM      6  C14 UNK     1      43.752  24.008  10.682  1.00  0.00     0.071 A 
ENDROOT
BRANCH   1   7
ATOM      7  C4  UNK     1      41.005  26.371  12.900  1.00  0.00     0.165 C 
ATOM      8  O1  UNK     1      41.063  26.410  14.145  1.00  0.00    -0.292 OA
BRANCH   7   9
ATOM      9  C2  UNK     1      39.927  27.184  12.164  1.00  0.00     0.088 C 
BRANCH   9  10
ATOM     10  C1  UNK     1      38.552  27.107  12.830  1.00  0.00     0.046 C 
BRANCH  10  11
ATOM     11  C3  UNK     1      37.593  26.263  12.030  1.00  0.00    -0.058 A 
ATOM     12  C6  UNK     1      36.728  26.875  11.137  1.00  0.00     0.010 A 
ATOM     13  C12 UNK     1      35.840  26.094  10.396  1.00  0.00     0.037 A 
ATOM     14  C15 UNK     1      35.827  24.708  10.560  1.00  0.00     0.065 A 
ATOM     15  C13 UNK     1      36.702  24.104  11.463  1.00  0.00     0.037 A 
ATOM     16  C7  UNK     1      37.590  24.886  12.202  1.00  0.00     0.010 A 
BRANCH  14  17
ATOM     17  O5  UNK     1      34.963  23.946   9.837  1.00  0.00    -0.361 OA
ATOM     18  H14 UNK     1      34.456  23.381  10.444  1.00  0.00     0.217 HD
ENDBRANCH  14  17
ENDBRANCH  10  11
ENDBRANCH   9  10
ENDBRANCH   7   9
ENDBRANCH   1   7
BRANCH   2  19
ATOM     19  O2  UNK     1      43.225  27.510  11.573  1.00  0.00    -0.360 OA
ATOM     20  H11 UNK     1      43.575  27.853  10.735  1.00  0.00     0.217 HD
ENDBRANCH   2  19
BRANCH   3  21
ATOM     21  O3  UNK     1      40.717  23.567  12.668  1.00  0.00    -0.360 OA
ATOM     22  H12 UNK     1      40.286  24.203  13.264  1.00  0.00     0.217 HD
ENDBRANCH   3  21
BRANCH   6  23
ATOM     23  O4  UNK     1      44.631  23.251   9.971  1.00  0.00    -0.361 OA
ATOM     24  H13 UNK     1      45.041  23.805   9.284  1.00  0.00     0.217 HD
ENDBRANCH   6  23
TORSDOF 8
ENDMDL
MODEL 8
REMARK VINA RESULT:      -5.7      3.981      6.865
REMARK  8 active torsions:
REMARK  status: ('A' for Active; 'I' for Inactive)
REMARK    1  A    between atoms: O2_2  and  C8_13 
REMARK    2  A    between atoms: O3_3  and  C9_14 
REMARK    3  A    between atoms: O4_4  and  C14_19 
REMARK    4  A    between atoms: O5_5  and  C15_20 
REMARK    5  A    between atoms: C1_6  and  C2_7 
REMARK    6  A    between atoms: C1_6  and  C3_8 
REMARK    7  A    between atoms: C2_7  and  C4_9 
REMARK    8  A    between atoms: C4_9  and  C5_10 
ROOT
ATOM      1  C5  UNK     1      41.953  25.563  12.144  1.00  0.00     0.076 A 
ATOM      2  C8  UNK     1      41.771  24.183  12.060  1.00  0.00     0.085 A 
ATOM      3  C9  UNK     1      43.034  26.163  11.498  1.00  0.00     0.085 A 
ATOM      4  C10 UNK     1      42.669  23.403  11.331  1.00  0.00     0.074 A 
ATOM      5  C11 UNK     1      43.932  25.385  10.768  1.00  0.00     0.074 A 
ATOM      6  C14 UNK     1      43.749  24.003  10.685  1.00  0.00     0.071 A 
ENDROOT
BRANCH   1   7
ATOM      7  C4  UNK     1      41.014  26.377  12.906  1.00  0.00     0.165 C 
ATOM      8  O1  UNK     1      41.080  26.427  14.149  1.00  0.00    -0.292 OA
BRANCH   7   9
ATOM      9  C2  UNK     1      39.927  27.181  12.171  1.00  0.00     0.088 C 
BRANCH   9  10
ATOM     10  C1  UNK     1      38.555  27.094  12.841  1.00  0.00     0.046 C 
BRANCH  10  11
ATOM     11  C3  UNK     1      37.595  26.254  12.038  1.00  0.00    -0.058 A 
ATOM     12  C6  UNK     1      37.586  24.878  12.209  1.00  0.00     0.010 A 
ATOM     13  C12 UNK     1      36.697  24.100  11.466  1.00  0.00     0.037 A 
ATOM     14  C15 UNK     1      35.829  24.708  10.559  1.00  0.00     0.065 A 
ATOM     15  C13 UNK     1      35.848  26.093  10.396  1.00  0.00     0.037 A 
ATOM     16  C7  UNK     1      36.736  26.870  11.139  1.00  0.00     0.010 A 
BRANCH  14  17
ATOM     17  O5  UNK     1      34.962  23.950   9.835  1.00  0.00    -0.361 OA
ATOM     18  H14 UNK     1      35.449  23.214   9.429  1.00  0.00     0.217 HD
ENDBRANCH  14  17
ENDBRANCH  10  11
ENDBRANCH   9  10
ENDBRANCH   7   9
ENDBRANCH   1   7
BRANCH   2  19
ATOM     19  O2  UNK     1      40.722  23.575  12.683  1.00  0.00    -0.360 OA
ATOM     20  H11 UNK     1      39.884  23.996  12.432  1.00  0.00     0.217 HD
ENDBRANCH   2  19
BRANCH   3  21
ATOM     21  O3  UNK     1      43.230  27.511  11.566  1.00  0.00    -0.360 OA
ATOM     22  H12 UNK     1      42.736  27.866  12.324  1.00  0.00     0.217 HD
ENDBRANCH   3  21
BRANCH   6  23
ATOM     23  O4  UNK     1      44.626  23.243   9.975  1.00  0.00    -0.361 OA
ATOM     24  H13 UNK     1      45.031  23.793   9.282  1.00  0.00     0.217 HD
ENDBRANCH   6  23
TORSDOF 8
ENDMDL
MODEL 9
REMARK VINA RESULT:      -5.7      2.081      4.159
REMARK  8 active torsions:
REMARK  status: ('A' for Active; 'I' for Inactive)
REMARK    1  A    between atoms: O2_2  and  C8_13 
REMARK    2  A    between atoms: O3_3  and  C9_14 
REMARK    3  A    between atoms: O4_4  and  C14_19 
REMARK    4  A    between atoms: O5_5  and  C15_20 
REMARK    5  A    between atoms: C1_6  and  C2_7 
REMARK    6  A    between atoms: C1_6  and  C3_8 
REMARK    7  A    between atoms: C2_7  and  C4_9 
REMARK    8  A    between atoms: C4_9  and  C5_10 
ROOT
ATOM      1  C5  UNK     1      39.519  21.304  11.497  1.00  0.00     0.076 A 
ATOM      2  C8  UNK     1      38.981  21.246  10.211  1.00  0.00     0.085 A 
ATOM      3  C9  UNK     1      38.895  22.073  12.479  1.00  0.00     0.085 A 
ATOM      4  C10 UNK     1      37.821  21.958   9.907  1.00  0.00     0.074 A 
ATOM      5  C11 UNK     1      37.735  22.784  12.176  1.00  0.00     0.074 A 
ATOM      6  C14 UNK     1      37.197  22.727  10.890  1.00  0.00     0.071 A 
ENDROOT
BRANCH   1   7
ATOM      7  C4  UNK     1      40.732  20.558  11.813  1.00  0.00     0.165 C 
ATOM      8  O1  UNK     1      40.697  19.321  11.958  1.00  0.00    -0.292 OA
BRANCH   7   9
ATOM      9  C2  UNK     1      42.067  21.304  11.974  1.00  0.00     0.088 C 
BRANCH   9  10
ATOM     10  C1  UNK     1      42.499  22.049  10.709  1.00  0.00     0.046 C 
BRANCH  10  11
ATOM     11  C3  UNK     1      42.689  23.522  10.967  1.00  0.00    -0.058 A 
ATOM     12  C6  UNK     1      42.004  24.125  12.011  1.00  0.00     0.010 A 
ATOM     13  C12 UNK     1      42.180  25.488  12.250  1.00  0.00     0.037 A 
ATOM     14  C15 UNK     1      43.039  26.233  11.441  1.00  0.00     0.065 A 
ATOM     15  C13 UNK     1      43.722  25.614  10.394  1.00  0.00     0.037 A 
ATOM     16  C7  UNK     1      43.546  24.251  10.156  1.00  0.00     0.010 A 
BRANCH  14  17
ATOM     17  O5  UNK     1      43.212  27.562  11.676  1.00  0.00    -0.361 OA
ATOM     18  H14 UNK     1      44.164  27.754  11.714  1.00  0.00     0.217 HD
ENDBRANCH  14  17
ENDBRANCH  10  11
ENDBRANCH   9  10
ENDBRANCH   7   9
ENDBRANCH   1   7
BRANCH   2  19
ATOM     19  O2  UNK     1      39.574  20.500   9.236  1.00  0.00    -0.360 OA
ATOM     20  H11 UNK     1      39.080  20.570   8.403  1.00  0.00     0.217 HD
ENDBRANCH   2  19
BRANCH   3  21
ATOM     21  O3  UNK     1      39.403  22.142  13.742  1.00  0.00    -0.360 OA
ATOM     22  H12 UNK     1      39.105  21.366  14.248  1.00  0.00     0.217 HD
ENDBRANCH   3  21
BRANCH   6  23
ATOM     23  O4  UNK     1      36.066  23.422  10.594  1.00  0.00    -0.361 OA
ATOM     24  H13 UNK     1      35.841  23.276   9.659  1.00  0.00     0.217 HD
ENDBRANCH   6  23
TORSDOF 8
ENDMDL
MODEL 10
REMARK VINA RESULT:      -5.7      2.077      3.890
REMARK  8 active torsions:
REMARK  status: ('A' for Active; 'I' for Inactive)
REMARK    1  A    between atoms: O2_2  and  C8_13 
REMARK    2  A    between atoms: O3_3  and  C9_14 
REMARK    3  A    between atoms: O4_4  and  C14_19 
REMARK    4  A    between atoms: O5_5  and  C15_20 
REMARK    5  A    between atoms: C1_6  and  C2_7 
REMARK    6  A    between atoms: C1_6  and  C3_8 
REMARK    7  A    between atoms: C2_7  and  C4_9 
REMARK    8  A    between atoms: C4_9  and  C5_10 
ROOT
ATOM      1  C5  UNK     1      39.518  21.298  11.494  1.00  0.00     0.076 A 
ATOM      2  C8  UNK     1      38.889  22.066  12.474  1.00  0.00     0.085 A 
ATOM      3  C9  UNK     1      38.986  21.241  10.205  1.00  0.00     0.085 A 
ATOM      4  C10 UNK     1      37.728  22.776  12.166  1.00  0.00     0.074 A 
ATOM      5  C11 UNK     1      37.826  21.951   9.897  1.00  0.00     0.074 A 
ATOM      6  C14 UNK     1      37.197  22.719  10.877  1.00  0.00     0.071 A 
ENDROOT
BRANCH   1   7
ATOM      7  C4  UNK     1      40.731  20.556  11.817  1.00  0.00     0.165 C 
ATOM      8  O1  UNK     1      40.699  19.319  11.965  1.00  0.00    -0.292 OA
BRANCH   7   9
ATOM      9  C2  UNK     1      42.065  21.305  11.979  1.00  0.00     0.088 C 
BRANCH   9  10
ATOM     10  C1  UNK     1      42.495  22.053  10.715  1.00  0.00     0.046 C 
BRANCH  10  11
ATOM     11  C3  UNK     1      42.674  23.527  10.975  1.00  0.00    -0.058 A 
ATOM     12  C6  UNK     1      41.982  24.125  12.016  1.00  0.00     0.010 A 
ATOM     13  C12 UNK     1      42.148  25.490  12.257  1.00  0.00     0.037 A 
ATOM     14  C15 UNK     1      43.005  26.240  11.450  1.00  0.00     0.065 A 
ATOM     15  C13 UNK     1      43.696  25.626  10.405  1.00  0.00     0.037 A 
ATOM     16  C7  UNK     1      43.530  24.262  10.166  1.00  0.00     0.010 A 
BRANCH  14  17
ATOM     17  O5  UNK     1      43.169  27.570  11.686  1.00  0.00    -0.361 OA
ATOM     18  H14 UNK     1      42.318  28.021  11.553  1.00  0.00     0.217 HD
ENDBRANCH  14  17
ENDBRANCH  10  11
ENDBRANCH   9  10
ENDBRANCH   7   9
ENDBRANCH   1   7
BRANCH   2  19
ATOM     19  O2  UNK     1      39.391  22.136  13.739  1.00  0.00    -0.360 OA
ATOM     20  H11 UNK     1      38.682  22.045  14.395  1.00  0.00     0.217 HD
ENDBRANCH   2  19
BRANCH   3  21
ATOM     21  O3  UNK     1      39.586  20.497   9.232  1.00  0.00    -0.360 OA
ATOM     22  H12 UNK     1      40.297  21.021   8.824  1.00  0.00     0.217 HD
ENDBRANCH   3  21
BRANCH   6  23
ATOM     23  O4  UNK     1      36.065  23.411  10.577  1.00  0.00    -0.361 OA
ATOM     24  H13 UNK     1      35.370  23.171  11.214  1.00  0.00     0.217 HD
ENDBRANCH   6  23
TORSDOF 8
ENDMDL
MODEL 11
REMARK VINA RESULT:      -5.7      4.112      6.902
REMARK  8 active torsions:
REMARK  status: ('A' for Active; 'I' for Inactive)
REMARK    1  A    between atoms: O2_2  and  C8_13 
REMARK    2  A    between atoms: O3_3  and  C9_14 
REMARK    3  A    between atoms: O4_4  and  C14_19 
REMARK    4  A    between atoms: O5_5  and  C15_20 
REMARK    5  A    between atoms: C1_6  and  C2_7 
REMARK    6  A    between atoms: C1_6  and  C3_8 
REMARK    7  A    between atoms: C2_7  and  C4_9 
REMARK    8  A    between atoms: C4_9  and  C5_10 
ROOT
ATOM      1  C5  UNK     1      41.455  24.524  12.294  1.00  0.00     0.076 A 
ATOM      2  C8  UNK     1      41.943  23.648  11.324  1.00  0.00     0.085 A 
ATOM      3  C9  UNK     1      41.974  25.816  12.389  1.00  0.00     0.085 A 
ATOM      4  C10 UNK     1      42.948  24.062  10.451  1.00  0.00     0.074 A 
ATOM      5  C11 UNK     1      42.979  26.231  11.517  1.00  0.00     0.074 A 
ATOM      6  C14 UNK     1      43.467  25.353  10.547  1.00  0.00     0.071 A 
ENDROOT
BRANCH   1   7
ATOM      7  C4  UNK     1      40.404  24.090  13.206  1.00  0.00     0.165 C 
ATOM      8  O1  UNK     1      40.631  23.220  14.069  1.00  0.00    -0.292 OA
BRANCH   7   9
ATOM      9  C2  UNK     1      38.998  24.707  13.102  1.00  0.00     0.088 C 
BRANCH   9  10
ATOM     10  C1  UNK     1      37.990  23.797  12.398  1.00  0.00     0.046 C 
BRANCH  10  11
ATOM     11  C3  UNK     1      37.052  24.581  11.517  1.00  0.00    -0.058 A 
ATOM     12  C6  UNK     1      36.098  23.909  10.769  1.00  0.00     0.010 A 
ATOM     13  C12 UNK     1      35.229  24.635   9.953  1.00  0.00     0.037 A 
ATOM     14  C15 UNK     1      35.327  26.026   9.894  1.00  0.00     0.065 A 
ATOM     15  C13 UNK     1      36.292  26.690  10.651  1.00  0.00     0.037 A 
ATOM     16  C7  UNK     1      37.159  25.963  11.467  1.00  0.00     0.010 A 
BRANCH  14  17
ATOM     17  O5  UNK     1      34.480  26.734   9.100  1.00  0.00    -0.361 OA
ATOM     18  H14 UNK     1      34.272  27.579   9.534  1.00  0.00     0.217 HD
ENDBRANCH  14  17
ENDBRANCH  10  11
ENDBRANCH   9  10
ENDBRANCH   7   9
ENDBRANCH   1   7
BRANCH   2  19
ATOM     19  O2  UNK     1      41.450  22.381  11.213  1.00  0.00    -0.360 OA
ATOM     20  H11 UNK     1      42.130  21.728  11.445  1.00  0.00     0.217 HD
ENDBRANCH   2  19
BRANCH   3  21
ATOM     21  O3  UNK     1      41.511  26.689  13.329  1.00  0.00    -0.360 OA
ATOM     22  H12 UNK     1      42.258  27.204  13.680  1.00  0.00     0.217 HD
ENDBRANCH   3  21
BRANCH   6  23
ATOM     23  O4  UNK     1      44.448  25.758   9.696  1.00  0.00    -0.361 OA
ATOM     24  H13 UNK     1      44.230  25.458   8.797  1.00  0.00     0.217 HD
ENDBRANCH   6  23
TORSDOF 8
ENDMDL
MODEL 12
REMARK VINA RESULT:      -5.7      4.119      6.845
REMARK  8 active torsions:
REMARK  status: ('A' for Active; 'I' for Inactive)
REMARK    1  A    between atoms: O2_2  and  C8_13 
REMARK    2  A    between atoms: O3_3  and  C9_14 
REMARK    3  A    between atoms: O4_4  and  C14_19 
REMARK    4  A    between atoms: O5_5  and  C15_20 
REMARK    5  A    between atoms: C1_6  and  C2_7 
REMARK    6  A    between atoms: C1_6  and  C3_8 
REMARK    7  A    between atoms: C2_7  and  C4_9 
REMARK    8  A    between atoms: C4_9  and  C5_10 
ROOT
ATOM      1  C5  UNK     1      41.468  24.530  12.262  1.00  0.00     0.076 A 
ATOM      2  C8  UNK     1      41.987  25.820  12.371  1.00  0.00     0.085 A 
ATOM      3  C9  UNK     1      41.957  23.663  11.285  1.00  0.00     0.085 A 
ATOM      4  C10 UNK     1      42.994  26.243  11.504  1.00  0.00     0.074 A 
ATOM      5  C11 UNK     1      42.964  24.084  10.417  1.00  0.00     0.074 A 
ATOM      6  C14 UNK     1      43.483  25.375  10.527  1.00  0.00     0.071 A 
ENDROOT
BRANCH   1   7
ATOM      7  C4  UNK     1      40.415  24.089  13.170  1.00  0.00     0.165 C 
ATOM      8  O1  UNK     1      40.648  23.230  14.042  1.00  0.00    -0.292 OA
BRANCH   7   9
ATOM      9  C2  UNK     1      39.003  24.686  13.050  1.00  0.00     0.088 C 
BRANCH   9  10
ATOM     10  C1  UNK     1      38.015  23.761  12.336  1.00  0.00     0.046 C 
BRANCH  10  11
ATOM     11  C3  UNK     1      37.036  24.536  11.492  1.00  0.00    -0.058 A 
ATOM     12  C6  UNK     1      36.086  23.853  10.749  1.00  0.00     0.010 A 
ATOM     13  C12 UNK     1      35.180  24.571   9.967  1.00  0.00     0.037 A 
ATOM     14  C15 UNK     1      35.236  25.965   9.937  1.00  0.00     0.065 A 
ATOM     15  C13 UNK     1      36.198  26.640  10.690  1.00  0.00     0.037 A 
ATOM     16  C7  UNK     1      37.103  25.922  11.471  1.00  0.00     0.010 A 
BRANCH  14  17
ATOM     17  O5  UNK     1      34.352  26.665   9.176  1.00  0.00    -0.361 OA
ATOM     18  H14 UNK     1      33.799  27.212   9.759  1.00  0.00     0.217 HD
ENDBRANCH  14  17
ENDBRANCH  10  11
ENDBRANCH   9  10
ENDBRANCH   7   9
ENDBRANCH   1   7
BRANCH   2  19
ATOM     19  O2  UNK     1      41.525  26.684  13.319  1.00  0.00    -0.360 OA
ATOM     20  H11 UNK     1      40.562  26.603  13.415  1.00  0.00     0.217 HD
ENDBRANCH   2  19
BRANCH   3  21
ATOM     21  O3  UNK     1      41.464  22.397  11.161  1.00  0.00    -0.360 OA
ATOM     22  H12 UNK     1      41.596  22.092  10.247  1.00  0.00     0.217 HD
ENDBRANCH   3  21
BRANCH   6  23
ATOM     23  O4  UNK     1      44.465  25.787   9.680  1.00  0.00    -0.361 OA
ATOM     24  H13 UNK     1      44.059  26.081   8.846  1.00  0.00     0.217 HD
ENDBRANCH   6  23
TORSDOF 8
ENDMDL
MODEL 13
REMARK VINA RESULT:      -5.5      4.329      6.820
REMARK  8 active torsions:
REMARK  status: ('A' for Active; 'I' for Inactive)
REMARK    1  A    between atoms: O2_2  and  C8_13 
REMARK    2  A    between atoms: O3_3  and  C9_14 
REMARK    3  A    between atoms: O4_4  and  C14_19 
REMARK    4  A    between atoms: O5_5  and  C15_20 
REMARK    5  A    between atoms: C1_6  and  C2_7 
REMARK    6  A    between atoms: C1_6  and  C3_8 
REMARK    7  A    between atoms: C2_7  and  C4_9 
REMARK    8  A    between atoms: C4_9  and  C5_10 
ROOT
ATOM      1  C5  UNK     1      37.276  24.996  11.877  1.00  0.00     0.076 A 
ATOM      2  C8  UNK     1      37.463  26.326  11.500  1.00  0.00     0.085 A 
ATOM      3  C9  UNK     1      36.242  24.250  11.311  1.00  0.00     0.085 A 
ATOM      4  C10 UNK     1      36.618  26.909  10.557  1.00  0.00     0.074 A 
ATOM      5  C11 UNK     1      35.396  24.833  10.368  1.00  0.00     0.074 A 
ATOM      6  C14 UNK     1      35.584  26.164   9.991  1.00  0.00     0.071 A 
ENDROOT
BRANCH   1   7
ATOM      7  C4  UNK     1      38.161  24.387  12.863  1.00  0.00     0.165 C 
ATOM      8  O1  UNK     1      38.074  24.691  14.069  1.00  0.00    -0.292 OA
BRANCH   7   9
ATOM      9  C2  UNK     1      39.215  23.361  12.414  1.00  0.00     0.088 C 
BRANCH   9  10
ATOM     10  C1  UNK     1      40.571  23.549  13.097  1.00  0.00     0.046 C 
BRANCH  10  11
ATOM     11  C3  UNK     1      41.586  24.154  12.162  1.00  0.00    -0.058 A 
ATOM     12  C6  UNK     1      41.955  25.481  12.322  1.00  0.00     0.010 A 
ATOM     13  C12 UNK     1      42.896  26.041  11.457  1.00  0.00     0.037 A 
ATOM     14  C15 UNK     1      43.455  25.267  10.439  1.00  0.00     0.065 A 
ATOM     15  C13 UNK     1      43.074  23.933  10.288  1.00  0.00     0.037 A 
ATOM     16  C7  UNK     1      42.135  23.374  11.154  1.00  0.00     0.010 A 
BRANCH  14  17
ATOM     17  O5  UNK     1      44.372  25.813   9.596  1.00  0.00    -0.361 OA
ATOM     18  H14 UNK     1      44.064  25.704   8.680  1.00  0.00     0.217 HD
ENDBRANCH  14  17
ENDBRANCH  10  11
ENDBRANCH   9  10
ENDBRANCH   7   9
ENDBRANCH   1   7
BRANCH   2  19
ATOM     19  O2  UNK     1      38.468  27.073  12.040  1.00  0.00    -0.360 OA
ATOM     20  H11 UNK     1      39.329  26.789  11.696  1.00  0.00     0.217 HD
ENDBRANCH   2  19
BRANCH   3  21
ATOM     21  O3  UNK     1      36.041  22.949  11.665  1.00  0.00    -0.360 OA
ATOM     22  H12 UNK     1      35.940  22.412  10.861  1.00  0.00     0.217 HD
ENDBRANCH   3  21
BRANCH   6  23
ATOM     23  O4  UNK     1      34.758  26.732   9.071  1.00  0.00    -0.361 OA
ATOM     24  H13 UNK     1      33.934  27.002   9.512  1.00  0.00     0.217 HD
ENDBRANCH   6  23
TORSDOF 8
ENDMDL
MODEL 14
REMARK VINA RESULT:      -5.5      4.338      6.739
REMARK  8 active torsions:
REMARK  status: ('A' for Active; 'I' for Inactive)
REMARK    1  A    between atoms: O2_2  and  C8_13 
REMARK    2  A    between atoms: O3_3  and  C9_14 
REMARK    3  A    between atoms: O4_4  and  C14_19 
REMARK    4  A    between atoms: O5_5  and  C15_20 
REMARK    5  A    between atoms: C1_6  and  C2_7 
REMARK    6  A    between atoms: C1_6  and  C3_8 
REMARK    7  A    between atoms: C2_7  and  C4_9 
REMARK    8  A    between atoms: C4_9  and  C5_10 
ROOT
ATOM      1  C5  UNK     1      37.266  24.979  11.880  1.00  0.00     0.076 A 
ATOM      2  C8  UNK     1      36.217  24.240  11.332  1.00  0.00     0.085 A 
ATOM      3  C9  UNK     1      37.465  26.303  11.488  1.00  0.00     0.085 A 
ATOM      4  C10 UNK     1      35.368  24.825  10.393  1.00  0.00     0.074 A 
ATOM      5  C11 UNK     1      36.616  26.888  10.549  1.00  0.00     0.074 A 
ATOM      6  C14 UNK     1      35.567  26.149  10.001  1.00  0.00     0.071 A 
ENDROOT
BRANCH   1   7
ATOM      7  C4  UNK     1      38.153  24.367  12.862  1.00  0.00     0.165 C 
ATOM      8  O1  UNK     1      38.063  24.661  14.070  1.00  0.00    -0.292 OA
BRANCH   7   9
ATOM      9  C2  UNK     1      39.214  23.350  12.406  1.00  0.00     0.088 C 
BRANCH   9  10
ATOM     10  C1  UNK     1      40.569  23.543  13.090  1.00  0.00     0.046 C 
BRANCH  10  11
ATOM     11  C3  UNK     1      41.580  24.160  12.158  1.00  0.00    -0.058 A 
ATOM     12  C6  UNK     1      41.936  25.490  12.323  1.00  0.00     0.010 A 
ATOM     13  C12 UNK     1      42.873  26.061  11.460  1.00  0.00     0.037 A 
ATOM     14  C15 UNK     1      43.440  25.295  10.441  1.00  0.00     0.065 A 
ATOM     15  C13 UNK     1      43.073  23.958  10.286  1.00  0.00     0.037 A 
ATOM     16  C7  UNK     1      42.137  23.388  11.149  1.00  0.00     0.010 A 
BRANCH  14  17
ATOM     17  O5  UNK     1      44.354  25.852   9.601  1.00  0.00    -0.361 OA
ATOM     18  H14 UNK     1      44.445  26.796   9.815  1.00  0.00     0.217 HD
ENDBRANCH  14  17
ENDBRANCH  10  11
ENDBRANCH   9  10
ENDBRANCH   7   9
ENDBRANCH   1   7
BRANCH   2  19
ATOM     19  O2  UNK     1      36.004  22.945  11.701  1.00  0.00    -0.360 OA
ATOM     20  H11 UNK     1      36.696  22.645  12.313  1.00  0.00     0.217 HD
ENDBRANCH   2  19
BRANCH   3  21
ATOM     21  O3  UNK     1      38.484  27.043  12.011  1.00  0.00    -0.360 OA
ATOM     22  H12 UNK     1      38.876  26.560  12.759  1.00  0.00     0.217 HD
ENDBRANCH   3  21
BRANCH   6  23
ATOM     23  O4  UNK     1      34.739  26.719   9.085  1.00  0.00    -0.361 OA
ATOM     24  H13 UNK     1      33.846  26.785   9.465  1.00  0.00     0.217 HD
ENDBRANCH   6  23
TORSDOF 8
ENDMDL
MODEL 15
REMARK VINA RESULT:      -5.5      1.691      7.211
REMARK  8 active torsions:
REMARK  status: ('A' for Active; 'I' for Inactive)
REMARK    1  A    between atoms: O2_2  and  C8_13 
REMARK    2  A    between atoms: O3_3  and  C9_14 
REMARK    3  A    between atoms: O4_4  and  C14_19 
REMARK    4  A    between atoms: O5_5  and  C15_20 
REMARK    5  A    between atoms: C1_6  and  C2_7 
REMARK    6  A    between atoms: C1_6  and  C3_8 
REMARK    7  A    between atoms: C2_7  and  C4_9 
REMARK    8  A    between atoms: C4_9  and  C5_10 
ROOT
ATOM      1  C5  UNK     1      42.268  23.813  11.300  1.00  0.00     0.076 A 
ATOM      2  C8  UNK     1      41.474  24.554  12.175  1.00  0.00     0.085 A 
ATOM      3  C9  UNK     1      43.398  24.395  10.724  1.00  0.00     0.085 A 
ATOM      4  C10 UNK     1      41.807  25.874  12.474  1.00  0.00     0.074 A 
ATOM      5  C11 UNK     1      43.732  25.715  11.022  1.00  0.00     0.074 A 
ATOM      6  C14 UNK     1      42.937  26.456  11.897  1.00  0.00     0.071 A 
ENDROOT
BRANCH   1   7
ATOM      7  C4  UNK     1      41.918  22.432  10.989  1.00  0.00     0.165 C 
ATOM      8  O1  UNK     1      40.898  22.170  10.324  1.00  0.00    -0.292 OA
BRANCH   7   9
ATOM      9  C2  UNK     1      42.814  21.286  11.488  1.00  0.00     0.088 C 
BRANCH   9  10
ATOM     10  C1  UNK     1      42.637  19.990  10.693  1.00  0.00     0.046 C 
BRANCH  10  11
ATOM     11  C3  UNK     1      42.217  18.846  11.579  1.00  0.00    -0.058 A 
ATOM     12  C6  UNK     1      43.038  17.735  11.693  1.00  0.00     0.010 A 
ATOM     13  C12 UNK     1      42.650  16.675  12.514  1.00  0.00     0.037 A 
ATOM     14  C15 UNK     1      41.442  16.739  13.210  1.00  0.00     0.065 A 
ATOM     15  C13 UNK     1      40.624  17.863  13.086  1.00  0.00     0.037 A 
ATOM     16  C7  UNK     1      41.014  18.922  12.267  1.00  0.00     0.010 A 
BRANCH  14  17
ATOM     17  O5  UNK     1      41.064  15.707  14.011  1.00  0.00    -0.361 OA
ATOM     18  H14 UNK     1      40.828  16.057  14.887  1.00  0.00     0.217 HD
ENDBRANCH  14  17
ENDBRANCH  10  11
ENDBRANCH   9  10
ENDBRANCH   7   9
ENDBRANCH   1   7
BRANCH   2  19
ATOM     19  O2  UNK     1      40.366  24.005  12.750  1.00  0.00    -0.360 OA
ATOM     20  H11 UNK     1      39.563  24.459  12.448  1.00  0.00     0.217 HD
ENDBRANCH   2  19
BRANCH   3  21
ATOM     21  O3  UNK     1      44.189  23.689   9.866  1.00  0.00    -0.360 OA
ATOM     22  H12 UNK     1      44.872  23.221  10.376  1.00  0.00     0.217 HD
ENDBRANCH   3  21
BRANCH   6  23
ATOM     23  O4  UNK     1      43.263  27.744  12.187  1.00  0.00    -0.361 OA
ATOM     24  H13 UNK     1      44.078  27.978  11.711  1.00  0.00     0.217 HD
ENDBRANCH   6  23
TORSDOF 8
ENDMDL
MODEL 16
REMARK VINA RESULT:      -5.5      1.690      7.392
REMARK  8 active torsions:
REMARK  status: ('A' for Active; 'I' for Inactive)
REMARK    1  A    between atoms: O2_2  and  C8_13 
REMARK    2  A    between atoms: O3_3  and  C9_14 
REMARK    3  A    between atoms: O4_4  and  C14_19 
REMARK    4  A    between atoms: O5_5  and  C15_20 
REMARK    5  A    between atoms: C1_6  and  C2_7 
REMARK    6  A    between atoms: C1_6  and  C3_8 
REMARK    7  A    between atoms: C2_7  and  C4_9 
REMARK    8  A    between atoms: C4_9  and  C5_10 
ROOT
ATOM      1  C5  UNK     1      42.257  23.818  11.305  1.00  0.00     0.076 A 
ATOM      2  C8  UNK     1      43.384  24.396  10.719  1.00  0.00     0.085 A 
ATOM      3  C9  UNK     1      41.468  24.562  12.181  1.00  0.00     0.085 A 
ATOM      4  C10 UNK     1      43.720  25.718  11.011  1.00  0.00     0.074 A 
ATOM      5  C11 UNK     1      41.803  25.883  12.473  1.00  0.00     0.074 A 
ATOM      6  C14 UNK     1      42.931  26.462  11.888  1.00  0.00     0.071 A 
ENDROOT
BRANCH   1   7
ATOM      7  C4  UNK     1      41.906  22.436  10.999  1.00  0.00     0.165 C 
ATOM      8  O1  UNK     1      40.880  22.172  10.342  1.00  0.00    -0.292 OA
BRANCH   7   9
ATOM      9  C2  UNK     1      42.806  21.290  11.493  1.00  0.00     0.088 C 
BRANCH   9  10
ATOM     10  C1  UNK     1      42.624  19.994  10.701  1.00  0.00     0.046 C 
BRANCH  10  11
ATOM     11  C3  UNK     1      42.202  18.852  11.590  1.00  0.00    -0.058 A 
ATOM     12  C6  UNK     1      41.005  18.935  12.284  1.00  0.00     0.010 A 
ATOM     13  C12 UNK     1      40.615  17.877  13.107  1.00  0.00     0.037 A 
ATOM     14  C15 UNK     1      41.429  16.750  13.227  1.00  0.00     0.065 A 
ATOM     15  C13 UNK     1      42.632  16.680  12.524  1.00  0.00     0.037 A 
ATOM     16  C7  UNK     1      43.021  17.737  11.701  1.00  0.00     0.010 A 
BRANCH  14  17
ATOM     17  O5  UNK     1      41.048  15.719  14.028  1.00  0.00    -0.361 OA
ATOM     18  H14 UNK     1      40.636  16.079  14.832  1.00  0.00     0.217 HD
ENDBRANCH  14  17
ENDBRANCH  10  11
ENDBRANCH   9  10
ENDBRANCH   7   9
ENDBRANCH   1   7
BRANCH   2  19
ATOM     19  O2  UNK     1      44.169  23.687   9.860  1.00  0.00    -0.360 OA
ATOM     20  H11 UNK     1      44.272  24.162   9.020  1.00  0.00     0.217 HD
ENDBRANCH   2  19
BRANCH   3  21
ATOM     21  O3  UNK     1      40.362  24.016  12.764  1.00  0.00    -0.360 OA
ATOM     22  H12 UNK     1      39.957  24.673  13.355  1.00  0.00     0.217 HD
ENDBRANCH   3  21
BRANCH   6  23
ATOM     23  O4  UNK     1      43.259  27.751  12.173  1.00  0.00    -0.361 OA
ATOM     24  H13 UNK     1      43.456  27.823  13.123  1.00  0.00     0.217 HD
ENDBRANCH   6  23
TORSDOF 8
ENDMDL
MODEL 17
REMARK VINA RESULT:      -5.5      3.514      5.209
REMARK  8 active torsions:
REMARK  status: ('A' for Active; 'I' for Inactive)
REMARK    1  A    between atoms: O2_2  and  C8_13 
REMARK    2  A    between atoms: O3_3  and  C9_14 
REMARK    3  A    between atoms: O4_4  and  C14_19 
REMARK    4  A    between atoms: O5_5  and  C15_20 
REMARK    5  A    between atoms: C1_6  and  C2_7 
REMARK    6  A    between atoms: C1_6  and  C3_8 
REMARK    7  A    between atoms: C2_7  and  C4_9 
REMARK    8  A    between atoms: C4_9  and  C5_10 
ROOT
ATOM      1  C5  UNK     1      41.814  21.088  10.975  1.00  0.00     0.076 A 
ATOM      2  C8  UNK     1      42.706  20.084  10.596  1.00  0.00     0.085 A 
ATOM      3  C9  UNK     1      42.266  22.398  11.133  1.00  0.00     0.085 A 
ATOM      4  C10 UNK     1      44.048  20.391  10.375  1.00  0.00     0.074 A 
ATOM      5  C11 UNK     1      43.608  22.705  10.913  1.00  0.00     0.074 A 
ATOM      6  C14 UNK     1      44.500  21.701  10.533  1.00  0.00     0.071 A 
ENDROOT
BRANCH   1   7
ATOM      7  C4  UNK     1      40.410  20.766  11.206  1.00  0.00     0.165 C 
ATOM      8  O1  UNK     1      40.063  20.127  12.217  1.00  0.00    -0.292 OA
BRANCH   7   9
ATOM      9  C2  UNK     1      39.346  21.217  10.190  1.00  0.00     0.088 C 
BRANCH   9  10
ATOM     10  C1  UNK     1      37.922  21.170  10.747  1.00  0.00     0.046 C 
BRANCH  10  11
ATOM     11  C3  UNK     1      37.330  22.550  10.880  1.00  0.00    -0.058 A 
ATOM     12  C6  UNK     1      37.834  23.418  11.836  1.00  0.00     0.010 A 
ATOM     13  C12 UNK     1      37.287  24.696  11.960  1.00  0.00     0.037 A 
ATOM     14  C15 UNK     1      36.240  25.089  11.125  1.00  0.00     0.065 A 
ATOM     15  C13 UNK     1      35.741  24.205  10.168  1.00  0.00     0.037 A 
ATOM     16  C7  UNK     1      36.290  22.929  10.045  1.00  0.00     0.010 A 
BRANCH  14  17
ATOM     17  O5  UNK     1      35.707  26.335  11.244  1.00  0.00    -0.361 OA
ATOM     18  H14 UNK     1      34.744  26.257  11.355  1.00  0.00     0.217 HD
ENDBRANCH  14  17
ENDBRANCH  10  11
ENDBRANCH   9  10
ENDBRANCH   7   9
ENDBRANCH   1   7
BRANCH   2  19
ATOM     19  O2  UNK     1      42.286  18.797  10.435  1.00  0.00    -0.360 OA
ATOM     20  H11 UNK     1      42.942  18.282   9.940  1.00  0.00     0.217 HD
ENDBRANCH   2  19
BRANCH   3  21
ATOM     21  O3  UNK     1      41.411  23.394  11.503  1.00  0.00    -0.360 OA
ATOM     22  H12 UNK     1      41.650  24.210  11.030  1.00  0.00     0.217 HD
ENDBRANCH   3  21
BRANCH   6  23
ATOM     23  O4  UNK     1      45.810  22.000  10.319  1.00  0.00    -0.361 OA
ATOM     24  H13 UNK     1      45.936  22.205   9.376  1.00  0.00     0.217 HD
ENDBRANCH   6  23
TORSDOF 8
ENDMDL
MODEL 18
REMARK VINA RESULT:      -5.5      3.510      5.082
REMARK  8 active torsions:
REMARK  status: ('A' for Active; 'I' for Inactive)
REMARK    1  A    between atoms: O2_2  and  C8_13 
REMARK    2  A    between atoms: O3_3  and  C9_14 
REMARK    3  A    between atoms: O4_4  and  C14_19 
REMARK    4  A    between atoms: O5_5  and  C15_20 
REMARK    5  A    between atoms: C1_6  and  C2_7 
REMARK    6  A    between atoms: C1_6  and  C3_8 
REMARK    7  A    between atoms: C2_7  and  C4_9 
REMARK    8  A    between atoms: C4_9  and  C5_10 
ROOT
ATOM      1  C5  UNK     1      41.867  21.080  10.943  1.00  0.00     0.076 A 
ATOM      2  C8  UNK     1      42.310  22.389  11.131  1.00  0.00     0.085 A 
ATOM      3  C9  UNK     1      42.770  20.086  10.565  1.00  0.00     0.085 A 
ATOM      4  C10 UNK     1      43.655  22.705  10.940  1.00  0.00     0.074 A 
ATOM      5  C11 UNK     1      44.115  20.401  10.375  1.00  0.00     0.074 A 
ATOM      6  C14 UNK     1      44.558  21.711  10.563  1.00  0.00     0.071 A 
ENDROOT
BRANCH   1   7
ATOM      7  C4  UNK     1      40.460  20.751  11.142  1.00  0.00     0.165 C 
ATOM      8  O1  UNK     1      40.101  20.066  12.119  1.00  0.00    -0.292 OA
BRANCH   7   9
ATOM      9  C2  UNK     1      39.408  21.250  10.138  1.00  0.00     0.088 C 
BRANCH   9  10
ATOM     10  C1  UNK     1      37.977  21.176  10.674  1.00  0.00     0.046 C 
BRANCH  10  11
ATOM     11  C3  UNK     1      37.370  22.546  10.833  1.00  0.00    -0.058 A 
ATOM     12  C6  UNK     1      37.868  23.405  11.800  1.00  0.00     0.010 A 
ATOM     13  C12 UNK     1      37.306  24.673  11.947  1.00  0.00     0.037 A 
ATOM     14  C15 UNK     1      36.249  25.067  11.125  1.00  0.00     0.065 A 
ATOM     15  C13 UNK     1      35.756  24.193  10.156  1.00  0.00     0.037 A 
ATOM     16  C7  UNK     1      36.319  22.925  10.009  1.00  0.00     0.010 A 
BRANCH  14  17
ATOM     17  O5  UNK     1      35.702  26.304  11.267  1.00  0.00    -0.361 OA
ATOM     18  H14 UNK     1      35.753  26.772  10.416  1.00  0.00     0.217 HD
ENDBRANCH  14  17
ENDBRANCH  10  11
ENDBRANCH   9  10
ENDBRANCH   7   9
ENDBRANCH   1   7
BRANCH   2  19
ATOM     19  O2  UNK     1      41.445  23.376  11.500  1.00  0.00    -0.360 OA
ATOM     20  H11 UNK     1      41.586  23.626  12.427  1.00  0.00     0.217 HD
ENDBRANCH   2  19
BRANCH   3  21
ATOM     21  O3  UNK     1      42.358  18.800  10.377  1.00  0.00    -0.360 OA
ATOM     22  H12 UNK     1      42.397  18.326  11.226  1.00  0.00     0.217 HD
ENDBRANCH   3  21
BRANCH   6  23
ATOM     23  O4  UNK     1      45.870  22.019  10.376  1.00  0.00    -0.361 OA
ATOM     24  H13 UNK     1      45.935  22.920  10.016  1.00  0.00     0.217 HD
ENDBRANCH   6  23
TORSDOF 8
ENDMDL
MODEL 19
REMARK VINA RESULT:      -5.5      4.257      6.645
REMARK  8 active torsions:
REMARK  status: ('A' for Active; 'I' for Inactive)
REMARK    1  A    between atoms: O2_2  and  C8_13 
REMARK    2  A    between atoms: O3_3  and  C9_14 
REMARK    3  A    between atoms: O4_4  and  C14_19 
REMARK    4  A    between atoms: O5_5  and  C15_20 
REMARK    5  A    between atoms: C1_6  and  C2_7 
REMARK    6  A    between atoms: C1_6  and  C3_8 
REMARK    7  A    between atoms: C2_7  and  C4_9 
REMARK    8  A    between atoms: C4_9  and  C5_10 
ROOT
ATOM      1  C5  UNK     1      43.018  25.896  12.460  1.00  0.00     0.076 A 
ATOM      2  C8  UNK     1      43.020  24.661  13.109  1.00  0.00     0.085 A 
ATOM      3  C9  UNK     1      43.377  25.977  11.115  1.00  0.00     0.085 A 
ATOM      4  C10 UNK     1      43.382  23.508  12.414  1.00  0.00     0.074 A 
ATOM      5  C11 UNK     1      43.739  24.824  10.418  1.00  0.00     0.074 A 
ATOM      6  C14 UNK     1      43.742  23.589  11.068  1.00  0.00     0.071 A 
ENDROOT
BRANCH   1   7
ATOM      7  C4  UNK     1      42.638  27.101  13.188  1.00  0.00     0.165 C 
ATOM      8  O1  UNK     1      43.486  27.974  13.458  1.00  0.00    -0.292 OA
BRANCH   7   9
ATOM      9  C2  UNK     1      41.179  27.299  13.632  1.00  0.00     0.088 C 
BRANCH   9  10
ATOM     10  C1  UNK     1      40.298  27.924  12.548  1.00  0.00     0.046 C 
BRANCH  10  11
ATOM     11  C3  UNK     1      39.133  27.035  12.196  1.00  0.00    -0.058 A 
ATOM     12  C6  UNK     1      39.116  25.724  12.646  1.00  0.00     0.010 A 
ATOM     13  C12 UNK     1      38.037  24.901  12.320  1.00  0.00     0.037 A 
ATOM     14  C15 UNK     1      36.988  25.400  11.547  1.00  0.00     0.065 A 
ATOM     15  C13 UNK     1      37.017  26.722  11.101  1.00  0.00     0.037 A 
ATOM     16  C7  UNK     1      38.096  27.544  11.427  1.00  0.00     0.010 A 
BRANCH  14  17
ATOM     17  O5  UNK     1      35.935  24.599  11.231  1.00  0.00    -0.361 OA
ATOM     18  H14 UNK     1      36.242  23.677  11.189  1.00  0.00     0.217 HD
ENDBRANCH  14  17
ENDBRANCH  10  11
ENDBRANCH   9  10
ENDBRANCH   7   9
ENDBRANCH   1   7
BRANCH   2  19
ATOM     19  O2  UNK     1      42.672  24.559  14.423  1.00  0.00    -0.360 OA
ATOM     20  H11 UNK     1      43.386  24.148  14.936  1.00  0.00     0.217 HD
ENDBRANCH   2  19
BRANCH   3  21
ATOM     21  O3  UNK     1      43.380  27.173  10.461  1.00  0.00    -0.360 OA
ATOM     22  H12 UNK     1      43.671  27.870  11.075  1.00  0.00     0.217 HD
ENDBRANCH   3  21
BRANCH   6  23
ATOM     23  O4  UNK     1      44.095  22.464  10.389  1.00  0.00    -0.361 OA
ATOM     24  H13 UNK     1      44.651  22.715   9.631  1.00  0.00     0.217 HD
ENDBRANCH   6  23
TORSDOF 8
ENDMDL
MODEL 20
REMARK VINA RESULT:      -5.4      1.637      2.476
REMARK  8 active torsions:
REMARK  status: ('A' for Active; 'I' for Inactive)
REMARK    1  A    between atoms: O2_2  and  C8_13 
REMARK    2  A    between atoms: O3_3  and  C9_14 
REMARK    3  A    between atoms: O4_4  and  C14_19 
REMARK    4  A    between atoms: O5_5  and  C15_20 
REMARK    5  A    between atoms: C1_6  and  C2_7 
REMARK    6  A    between atoms: C1_6  and  C3_8 
REMARK    7  A    between atoms: C2_7  and  C4_9 
REMARK    8  A    between atoms: C4_9  and  C5_10 
ROOT
ATOM      1  C5  UNK     1      43.890  19.074  11.671  1.00  0.00     0.076 A 
ATOM      2  C8  UNK     1      42.650  18.485  11.423  1.00  0.00     0.085 A 
ATOM      3  C9  UNK     1      44.649  18.663  12.767  1.00  0.00     0.085 A 
ATOM      4  C10 UNK     1      42.169  17.487  12.270  1.00  0.00     0.074 A 
ATOM      5  C11 UNK     1      44.170  17.664  13.614  1.00  0.00     0.074 A 
ATOM      6  C14 UNK     1      42.929  17.076  13.365  1.00  0.00     0.071 A 
ENDROOT
BRANCH   1   7
ATOM      7  C4  UNK     1      44.392  20.118  10.785  1.00  0.00     0.165 C 
ATOM      8  O1  UNK     1      44.887  19.827   9.679  1.00  0.00    -0.292 OA
BRANCH   7   9
ATOM      9  C2  UNK     1      44.313  21.591  11.218  1.00  0.00     0.088 C 
BRANCH   9  10
ATOM     10  C1  UNK     1      42.981  22.255  10.864  1.00  0.00     0.046 C 
BRANCH  10  11
ATOM     11  C3  UNK     1      42.986  23.726  11.192  1.00  0.00    -0.058 A 
ATOM     12  C6  UNK     1      42.303  24.178  12.310  1.00  0.00     0.010 A 
ATOM     13  C12 UNK     1      42.308  25.540  12.613  1.00  0.00     0.037 A 
ATOM     14  C15 UNK     1      42.997  26.434  11.793  1.00  0.00     0.065 A 
ATOM     15  C13 UNK     1      43.680  25.966  10.671  1.00  0.00     0.037 A 
ATOM     16  C7  UNK     1      43.675  24.605  10.368  1.00  0.00     0.010 A 
BRANCH  14  17
ATOM     17  O5  UNK     1      43.003  27.762  12.090  1.00  0.00    -0.361 OA
ATOM     18  H14 UNK     1      42.324  27.938  12.763  1.00  0.00     0.217 HD
ENDBRANCH  14  17
ENDBRANCH  10  11
ENDBRANCH   9  10
ENDBRANCH   7   9
ENDBRANCH   1   7
BRANCH   2  19
ATOM     19  O2  UNK     1      41.891  18.871  10.358  1.00  0.00    -0.360 OA
ATOM     20  H11 UNK     1      41.606  18.099   9.843  1.00  0.00     0.217 HD
ENDBRANCH   2  19
BRANCH   3  21
ATOM     21  O3  UNK     1      45.864  19.224  13.027  1.00  0.00    -0.360 OA
ATOM     22  H12 UNK     1      46.127  19.778  12.272  1.00  0.00     0.217 HD
ENDBRANCH   3  21
BRANCH   6  23
ATOM     23  O4  UNK     1      42.460  16.102  14.192  1.00  0.00    -0.361 OA
ATOM     24  H13 UNK     1      41.820  16.495  14.811  1.00  0.00     0.217 HD
ENDBRANCH   6  23
TORSDOF 8
ENDMDL
