MODEL 1
REMARK VINA RESULT:      -5.9      0.000      0.000
REMARK  8 active torsions:
REMARK  status: ('A' for Active; 'I' for Inactive)
REMARK    1  A    between atoms: O2_2  and  C8_13 
REMARK    2  A    between atoms: O3_3  and  C9_14 
REMARK    3  A    between atoms: O4_4  and  C14_19 
REMARK    4  A    between atoms: O5_5  and  C15_20 
REMARK    5  A    between atoms: C1_6  and  C2_7 
REMARK    6  A    between atoms: C1_6  and  C3_8 
REMARK    7  A    between atoms: C2_7  and  C4_9 
REMARK    8  A    between atoms: C4_9  and  C5_10 
ROOT
ATOM      1  C5  UNK     1      41.136   0.616   8.840  1.00  0.00     0.076 A 
ATOM      2  C8  UNK     1      41.116   1.918   8.339  1.00  0.00     0.085 A 
ATOM      3  C9  UNK     1      40.196  -0.315   8.399  1.00  0.00     0.085 A 
ATOM      4  C10 UNK     1      40.157   2.288   7.398  1.00  0.00     0.074 A 
ATOM      5  C11 UNK     1      39.236   0.055   7.458  1.00  0.00     0.074 A 
ATOM      6  C14 UNK     1      39.216   1.357   6.957  1.00  0.00     0.071 A 
ENDROOT
BRANCH   1   7
ATOM      7  C4  UNK     1      42.141   0.230   9.825  1.00  0.00     0.165 C 
ATOM      8  O1  UNK     1      41.878   0.252  11.043  1.00  0.00    -0.292 OA
BRANCH   7   9
ATOM      9  C2  UNK     1      43.540  -0.207   9.358  1.00  0.00     0.088 C 
BRANCH   9  10
ATOM     10  C1  UNK     1      44.669   0.611   9.988  1.00  0.00     0.046 C 
BRANCH  10  11
ATOM     11  C3  UNK     1      45.648   1.100   8.951  1.00  0.00    -0.058 A 
ATOM     12  C6  UNK     1      47.002   0.865   9.128  1.00  0.00     0.010 A 
ATOM     13  C12 UNK     1      47.908   1.317   8.167  1.00  0.00     0.037 A 
ATOM     14  C15 UNK     1      47.447   2.001   7.042  1.00  0.00     0.065 A 
ATOM     15  C13 UNK     1      46.081   2.231   6.876  1.00  0.00     0.037 A 
ATOM     16  C7  UNK     1      45.177   1.778   7.836  1.00  0.00     0.010 A 
BRANCH  14  17
ATOM     17  O5  UNK     1      48.330   2.441   6.105  1.00  0.00    -0.361 OA
ATOM     18  H14 UNK     1      48.461   3.398   6.218  1.00  0.00     0.217 HD
ENDBRANCH  14  17
ENDBRANCH  10  11
ENDBRANCH   9  10
ENDBRANCH   7   9
ENDBRANCH   1   7
BRANCH   2  19
ATOM     19  O2  UNK     1      42.026   2.844   8.756  1.00  0.00    -0.360 OA
ATOM     20  H11 UNK     1      41.734   3.264   9.580  1.00  0.00     0.217 HD
ENDBRANCH   2  19
BRANCH   3  21
ATOM     21  O3  UNK     1      40.198  -1.593   8.876  1.00  0.00    -0.360 OA
ATOM     22  H12 UNK     1      41.074  -1.987   8.723  1.00  0.00     0.217 HD
ENDBRANCH   3  21
BRANCH   6  23
ATOM     23  O4  UNK     1      38.279   1.718   6.039  1.00  0.00    -0.361 OA
ATOM     24  H13 UNK     1      37.395   1.559   6.412  1.00  0.00     0.217 HD
ENDBRANCH   6  23
TORSDOF 8
ENDMDL
MODEL 2
REMARK VINA RESULT:      -5.9      0.026      1.863
REMARK  8 active torsions:
REMARK  status: ('A' for Active; 'I' for Inactive)
REMARK    1  A    between atoms: O2_2  and  C8_13 
REMARK    2  A    between atoms: O3_3  and  C9_14 
REMARK    3  A    between atoms: O4_4  and  C14_19 
REMARK    4  A    between atoms: O5_5  and  C15_20 
REMARK    5  A    between atoms: C1_6  and  C2_7 
REMARK    6  A    between atoms: C1_6  and  C3_8 
REMARK    7  A    between atoms: C2_7  and  C4_9 
REMARK    8  A    between atoms: C4_9  and  C5_10 
ROOT
ATOM      1  C5  UNK     1      41.133   0.610   8.836  1.00  0.00     0.076 A 
ATOM      2  C8  UNK     1      40.198  -0.322   8.387  1.00  0.00     0.085 A 
ATOM      3  C9  UNK     1      41.110   1.914   8.342  1.00  0.00     0.085 A 
ATOM      4  C10 UNK     1      39.241   0.049   7.443  1.00  0.00     0.074 A 
ATOM      5  C11 UNK     1      40.153   2.286   7.398  1.00  0.00     0.074 A 
ATOM      6  C14 UNK     1      39.218   1.353   6.948  1.00  0.00     0.071 A 
ENDROOT
BRANCH   1   7
ATOM      7  C4  UNK     1      42.133   0.221   9.824  1.00  0.00     0.165 C 
ATOM      8  O1  UNK     1      41.862   0.231  11.040  1.00  0.00    -0.292 OA
BRANCH   7   9
ATOM      9  C2  UNK     1      43.538  -0.203   9.364  1.00  0.00     0.088 C 
BRANCH   9  10
ATOM     10  C1  UNK     1      44.658   0.622  10.001  1.00  0.00     0.046 C 
BRANCH  10  11
ATOM     11  C3  UNK     1      45.645   1.110   8.973  1.00  0.00    -0.058 A 
ATOM     12  C6  UNK     1      46.999   0.886   9.168  1.00  0.00     0.010 A 
ATOM     13  C12 UNK     1      47.914   1.337   8.216  1.00  0.00     0.037 A 
ATOM     14  C15 UNK     1      47.463   2.008   7.079  1.00  0.00     0.065 A 
ATOM     15  C13 UNK     1      46.097   2.228   6.895  1.00  0.00     0.037 A 
ATOM     16  C7  UNK     1      45.184   1.776   7.847  1.00  0.00     0.010 A 
BRANCH  14  17
ATOM     17  O5  UNK     1      48.354   2.447   6.150  1.00  0.00    -0.361 OA
ATOM     18  H14 UNK     1      48.854   3.194   6.520  1.00  0.00     0.217 HD
ENDBRANCH  14  17
ENDBRANCH  10  11
ENDBRANCH   9  10
ENDBRANCH   7   9
ENDBRANCH   1   7
BRANCH   2  19
ATOM     19  O2  UNK     1      40.202  -1.602   8.857  1.00  0.00    -0.360 OA
ATOM     20  H11 UNK     1      40.679  -2.189   8.249  1.00  0.00     0.217 HD
ENDBRANCH   2  19
BRANCH   3  21
ATOM     21  O3  UNK     1      42.014   2.841   8.768  1.00  0.00    -0.360 OA
ATOM     22  H12 UNK     1      41.631   3.730   8.665  1.00  0.00     0.217 HD
ENDBRANCH   3  21
BRANCH   6  23
ATOM     23  O4  UNK     1      38.285   1.715   6.026  1.00  0.00    -0.361 OA
ATOM     24  H13 UNK     1      38.086   0.949   5.461  1.00  0.00     0.217 HD
ENDBRANCH   6  23
TORSDOF 8
ENDMDL
MODEL 3
REMARK VINA RESULT:      -5.8      1.075      2.558
REMARK  8 active torsions:
REMARK  status: ('A' for Active; 'I' for Inactive)
REMARK    1  A    between atoms: O2_2  and  C8_13 
REMARK    2  A    between atoms: O3_3  and  C9_14 
REMARK    3  A    between atoms: O4_4  and  C14_19 
REMARK    4  A    between atoms: O5_5  and  C15_20 
REMARK    5  A    between atoms: C1_6  and  C2_7 
REMARK    6  A    between atoms: C1_6  and  C3_8 
REMARK    7  A    between atoms: C2_7  and  C4_9 
REMARK    8  A    between atoms: C4_9  and  C5_10 
ROOT
ATOM      1  C5  UNK     1      40.299   0.892   9.510  1.00  0.00     0.076 A 
ATOM      2  C8  UNK     1      39.599  -0.095   8.816  1.00  0.00     0.085 A 
ATOM      3  C9  UNK     1      40.376   2.185   8.993  1.00  0.00     0.085 A 
ATOM      4  C10 UNK     1      38.977   0.211   7.606  1.00  0.00     0.074 A 
ATOM      5  C11 UNK     1      39.754   2.492   7.783  1.00  0.00     0.074 A 
ATOM      6  C14 UNK     1      39.054   1.504   7.089  1.00  0.00     0.071 A 
ENDROOT
BRANCH   1   7
ATOM      7  C4  UNK     1      40.949   0.571  10.775  1.00  0.00     0.165 C 
ATOM      8  O1  UNK     1      40.276   0.416  11.813  1.00  0.00    -0.292 OA
BRANCH   7   9
ATOM      9  C2  UNK     1      42.479   0.425  10.834  1.00  0.00     0.088 C 
BRANCH   9  10
ATOM     10  C1  UNK     1      43.056  -0.360   9.655  1.00  0.00     0.046 C 
BRANCH  10  11
ATOM     11  C3  UNK     1      44.030   0.470   8.857  1.00  0.00    -0.058 A 
ATOM     12  C6  UNK     1      43.617   1.047   7.667  1.00  0.00     0.010 A 
ATOM     13  C12 UNK     1      44.518   1.816   6.928  1.00  0.00     0.037 A 
ATOM     14  C15 UNK     1      45.823   1.995   7.390  1.00  0.00     0.065 A 
ATOM     15  C13 UNK     1      46.226   1.407   8.589  1.00  0.00     0.037 A 
ATOM     16  C7  UNK     1      45.324   0.641   9.327  1.00  0.00     0.010 A 
BRANCH  14  17
ATOM     17  O5  UNK     1      46.701   2.745   6.671  1.00  0.00    -0.361 OA
ATOM     18  H14 UNK     1      47.309   2.152   6.198  1.00  0.00     0.217 HD
ENDBRANCH  14  17
ENDBRANCH  10  11
ENDBRANCH   9  10
ENDBRANCH   7   9
ENDBRANCH   1   7
BRANCH   2  19
ATOM     19  O2  UNK     1      39.510  -1.365   9.302  1.00  0.00    -0.360 OA
ATOM     20  H11 UNK     1      38.582  -1.619   9.429  1.00  0.00     0.217 HD
ENDBRANCH   2  19
BRANCH   3  21
ATOM     21  O3  UNK     1      41.055   3.165   9.656  1.00  0.00    -0.360 OA
ATOM     22  H12 UNK     1      41.853   2.782  10.058  1.00  0.00     0.217 HD
ENDBRANCH   3  21
BRANCH   6  23
ATOM     23  O4  UNK     1      38.448   1.804   5.908  1.00  0.00    -0.361 OA
ATOM     24  H13 UNK     1      39.027   1.526   5.177  1.00  0.00     0.217 HD
ENDBRANCH   6  23
TORSDOF 8
ENDMDL
MODEL 4
REMARK VINA RESULT:      -5.8      1.067      1.749
REMARK  8 active torsions:
REMARK  status: ('A' for Active; 'I' for Inactive)
REMARK    1  A    between atoms: O2_2  and  C8_13 
REMARK    2  A    between atoms: O3_3  and  C9_14 
REMARK    3  A    between atoms: O4_4  and  C14_19 
REMARK    4  A    between atoms: O5_5  and  C15_20 
REMARK    5  A    between atoms: C1_6  and  C2_7 
REMARK    6  A    between atoms: C1_6  and  C3_8 
REMARK    7  A    between atoms: C2_7  and  C4_9 
REMARK    8  A    between atoms: C4_9  and  C5_10 
ROOT
ATOM      1  C5  UNK     1      40.306   0.878   9.507  1.00  0.00     0.076 A 
ATOM      2  C8  UNK     1      40.383   2.175   8.998  1.00  0.00     0.085 A 
ATOM      3  C9  UNK     1      39.606  -0.105   8.808  1.00  0.00     0.085 A 
ATOM      4  C10 UNK     1      39.759   2.488   7.790  1.00  0.00     0.074 A 
ATOM      5  C11 UNK     1      38.982   0.207   7.601  1.00  0.00     0.074 A 
ATOM      6  C14 UNK     1      39.059   1.505   7.091  1.00  0.00     0.071 A 
ENDROOT
BRANCH   1   7
ATOM      7  C4  UNK     1      40.959   0.552  10.770  1.00  0.00     0.165 C 
ATOM      8  O1  UNK     1      40.287   0.374  11.805  1.00  0.00    -0.292 OA
BRANCH   7   9
ATOM      9  C2  UNK     1      42.491   0.429  10.829  1.00  0.00     0.088 C 
BRANCH   9  10
ATOM     10  C1  UNK     1      43.080  -0.357   9.656  1.00  0.00     0.046 C 
BRANCH  10  11
ATOM     11  C3  UNK     1      44.052   0.476   8.860  1.00  0.00    -0.058 A 
ATOM     12  C6  UNK     1      43.637   1.059   7.673  1.00  0.00     0.010 A 
ATOM     13  C12 UNK     1      44.537   1.830   6.936  1.00  0.00     0.037 A 
ATOM     14  C15 UNK     1      45.843   2.007   7.396  1.00  0.00     0.065 A 
ATOM     15  C13 UNK     1      46.247   1.414   8.592  1.00  0.00     0.037 A 
ATOM     16  C7  UNK     1      45.347   0.644   9.328  1.00  0.00     0.010 A 
BRANCH  14  17
ATOM     17  O5  UNK     1      46.720   2.760   6.678  1.00  0.00    -0.361 OA
ATOM     18  H14 UNK     1      46.422   2.796   5.754  1.00  0.00     0.217 HD
ENDBRANCH  14  17
ENDBRANCH  10  11
ENDBRANCH   9  10
ENDBRANCH   7   9
ENDBRANCH   1   7
BRANCH   2  19
ATOM     19  O2  UNK     1      41.062   3.151   9.664  1.00  0.00    -0.360 OA
ATOM     20  H11 UNK     1      41.790   3.494   9.121  1.00  0.00     0.217 HD
ENDBRANCH   2  19
BRANCH   3  21
ATOM     21  O3  UNK     1      39.519  -1.378   9.288  1.00  0.00    -0.360 OA
ATOM     22  H12 UNK     1      40.401  -1.669   9.579  1.00  0.00     0.217 HD
ENDBRANCH   3  21
BRANCH   6  23
ATOM     23  O4  UNK     1      38.450   1.810   5.914  1.00  0.00    -0.361 OA
ATOM     24  H13 UNK     1      38.341   2.774   5.856  1.00  0.00     0.217 HD
ENDBRANCH   6  23
TORSDOF 8
ENDMDL
MODEL 5
REMARK VINA RESULT:      -5.8      2.727      3.997
REMARK  8 active torsions:
REMARK  status: ('A' for Active; 'I' for Inactive)
REMARK    1  A    between atoms: O2_2  and  C8_13 
REMARK    2  A    between atoms: O3_3  and  C9_14 
REMARK    3  A    between atoms: O4_4  and  C14_19 
REMARK    4  A    between atoms: O5_5  and  C15_20 
REMARK    5  A    between atoms: C1_6  and  C2_7 
REMARK    6  A    between atoms: C1_6  and  C3_8 
REMARK    7  A    between atoms: C2_7  and  C4_9 
REMARK    8  A    between atoms: C4_9  and  C5_10 
ROOT
ATOM      1  C5  UNK     1      39.806  -1.935   9.778  1.00  0.00     0.076 A 
ATOM      2  C8  UNK     1      40.624  -2.408   8.751  1.00  0.00     0.085 A 
ATOM      3  C9  UNK     1      38.523  -1.472   9.490  1.00  0.00     0.085 A 
ATOM      4  C10 UNK     1      40.159  -2.416   7.437  1.00  0.00     0.074 A 
ATOM      5  C11 UNK     1      38.057  -1.481   8.176  1.00  0.00     0.074 A 
ATOM      6  C14 UNK     1      38.875  -1.953   7.148  1.00  0.00     0.071 A 
ENDROOT
BRANCH   1   7
ATOM      7  C4  UNK     1      40.294  -1.927  11.153  1.00  0.00     0.165 C 
ATOM      8  O1  UNK     1      39.815  -2.705  12.001  1.00  0.00    -0.292 OA
BRANCH   7   9
ATOM      9  C2  UNK     1      41.408  -0.950  11.563  1.00  0.00     0.088 C 
BRANCH   9  10
ATOM     10  C1  UNK     1      41.137   0.492  11.129  1.00  0.00     0.046 C 
BRANCH  10  11
ATOM     11  C3  UNK     1      41.854   0.832   9.848  1.00  0.00    -0.058 A 
ATOM     12  C6  UNK     1      41.199   1.575   8.877  1.00  0.00     0.010 A 
ATOM     13  C12 UNK     1      41.863   1.890   7.691  1.00  0.00     0.037 A 
ATOM     14  C15 UNK     1      43.174   1.456   7.489  1.00  0.00     0.065 A 
ATOM     15  C13 UNK     1      43.821   0.709   8.474  1.00  0.00     0.037 A 
ATOM     16  C7  UNK     1      43.157   0.395   9.659  1.00  0.00     0.010 A 
BRANCH  14  17
ATOM     17  O5  UNK     1      43.822   1.765   6.333  1.00  0.00    -0.361 OA
ATOM     18  H14 UNK     1      43.904   2.731   6.265  1.00  0.00     0.217 HD
ENDBRANCH  14  17
ENDBRANCH  10  11
ENDBRANCH   9  10
ENDBRANCH   7   9
ENDBRANCH   1   7
BRANCH   2  19
ATOM     19  O2  UNK     1      41.882  -2.865   9.011  1.00  0.00    -0.360 OA
ATOM     20  H11 UNK     1      42.255  -3.302   8.229  1.00  0.00     0.217 HD
ENDBRANCH   2  19
BRANCH   3  21
ATOM     21  O3  UNK     1      37.707  -1.007  10.478  1.00  0.00    -0.360 OA
ATOM     22  H12 UNK     1      38.151  -0.274  10.938  1.00  0.00     0.217 HD
ENDBRANCH   3  21
BRANCH   6  23
ATOM     23  O4  UNK     1      38.420  -1.960   5.866  1.00  0.00    -0.361 OA
ATOM     24  H13 UNK     1      38.626  -2.821   5.464  1.00  0.00     0.217 HD
ENDBRANCH   6  23
TORSDOF 8
ENDMDL
MODEL 6
REMARK VINA RESULT:      -5.8      2.728      3.986
REMARK  8 active torsions:
REMARK  status: ('A' for Active; 'I' for Inactive)
REMARK    1  A    between atoms: O2_2  and  C8_13 
REMARK    2  A    between atoms: O3_3  and  C9_14 
REMARK    3  A    between atoms: O4_4  and  C14_19 
REMARK    4  A    between atoms: O5_5  and  C15_20 
REMARK    5  A    between atoms: C1_6  and  C2_7 
REMARK    6  A    between atoms: C1_6  and  C3_8 
REMARK    7  A    between atoms: C2_7  and  C4_9 
REMARK    8  A    between atoms: C4_9  and  C5_10 
ROOT
ATOM      1  C5  UNK     1      39.811  -1.930   9.775  1.00  0.00     0.076 A 
ATOM      2  C8  UNK     1      38.528  -1.465   9.489  1.00  0.00     0.085 A 
ATOM      3  C9  UNK     1      40.625  -2.407   8.748  1.00  0.00     0.085 A 
ATOM      4  C10 UNK     1      38.058  -1.478   8.176  1.00  0.00     0.074 A 
ATOM      5  C11 UNK     1      40.157  -2.419   7.435  1.00  0.00     0.074 A 
ATOM      6  C14 UNK     1      38.872  -1.955   7.148  1.00  0.00     0.071 A 
ENDROOT
BRANCH   1   7
ATOM      7  C4  UNK     1      40.302  -1.916  11.149  1.00  0.00     0.165 C 
ATOM      8  O1  UNK     1      39.833  -2.698  11.998  1.00  0.00    -0.292 OA
BRANCH   7   9
ATOM      9  C2  UNK     1      41.406  -0.926  11.556  1.00  0.00     0.088 C 
BRANCH   9  10
ATOM     10  C1  UNK     1      41.123   0.511  11.112  1.00  0.00     0.046 C 
BRANCH  10  11
ATOM     11  C3  UNK     1      41.844   0.851   9.833  1.00  0.00    -0.058 A 
ATOM     12  C6  UNK     1      41.199   1.606   8.866  1.00  0.00     0.010 A 
ATOM     13  C12 UNK     1      41.866   1.920   7.682  1.00  0.00     0.037 A 
ATOM     14  C15 UNK     1      43.173   1.474   7.479  1.00  0.00     0.065 A 
ATOM     15  C13 UNK     1      43.811   0.715   8.460  1.00  0.00     0.037 A 
ATOM     16  C7  UNK     1      43.143   0.401   9.643  1.00  0.00     0.010 A 
BRANCH  14  17
ATOM     17  O5  UNK     1      43.825   1.782   6.325  1.00  0.00    -0.361 OA
ATOM     18  H14 UNK     1      44.565   2.377   6.530  1.00  0.00     0.217 HD
ENDBRANCH  14  17
ENDBRANCH  10  11
ENDBRANCH   9  10
ENDBRANCH   7   9
ENDBRANCH   1   7
BRANCH   2  19
ATOM     19  O2  UNK     1      37.716  -0.995  10.477  1.00  0.00    -0.360 OA
ATOM     20  H11 UNK     1      36.870  -1.471  10.482  1.00  0.00     0.217 HD
ENDBRANCH   2  19
BRANCH   3  21
ATOM     21  O3  UNK     1      41.884  -2.865   9.006  1.00  0.00    -0.360 OA
ATOM     22  H12 UNK     1      41.985  -2.993   9.965  1.00  0.00     0.217 HD
ENDBRANCH   3  21
BRANCH   6  23
ATOM     23  O4  UNK     1      38.414  -1.968   5.867  1.00  0.00    -0.361 OA
ATOM     24  H13 UNK     1      38.055  -1.090   5.652  1.00  0.00     0.217 HD
ENDBRANCH   6  23
TORSDOF 8
ENDMDL
MODEL 7
REMARK VINA RESULT:      -5.7      1.686      2.709
REMARK  8 active torsions:
REMARK  status: ('A' for Active; 'I' for Inactive)
REMARK    1  A    between atoms: O2_2  and  C8_13 
REMARK    2  A    between atoms: O3_3  and  C9_14 
REMARK    3  A    between atoms: O4_4  and  C14_19 
REMARK    4  A    between atoms: O5_5  and  C15_20 
REMARK    5  A    between atoms: C1_6  and  C2_7 
REMARK    6  A    between atoms: C1_6  and  C3_8 
REMARK    7  A    between atoms: C2_7  and  C4_9 
REMARK    8  A    between atoms: C4_9  and  C5_10 
ROOT
ATOM      1  C5  UNK     1      40.495  -0.809   9.137  1.00  0.00     0.076 A 
ATOM      2  C8  UNK     1      40.764  -2.056   8.573  1.00  0.00     0.085 A 
ATOM      3  C9  UNK     1      39.480  -0.010   8.611  1.00  0.00     0.085 A 
ATOM      4  C10 UNK     1      40.019  -2.503   7.482  1.00  0.00     0.074 A 
ATOM      5  C11 UNK     1      38.735  -0.456   7.521  1.00  0.00     0.074 A 
ATOM      6  C14 UNK     1      39.004  -1.704   6.955  1.00  0.00     0.071 A 
ENDROOT
BRANCH   1   7
ATOM      7  C4  UNK     1      41.274  -0.343  10.279  1.00  0.00     0.165 C 
ATOM      8  O1  UNK     1      40.992  -0.714  11.434  1.00  0.00    -0.292 OA
BRANCH   7   9
ATOM      9  C2  UNK     1      42.455   0.618  10.057  1.00  0.00     0.088 C 
BRANCH   9  10
ATOM     10  C1  UNK     1      43.783  -0.102   9.814  1.00  0.00     0.046 C 
BRANCH  10  11
ATOM     11  C3  UNK     1      44.692   0.694   8.915  1.00  0.00    -0.058 A 
ATOM     12  C6  UNK     1      44.173   1.292   7.777  1.00  0.00     0.010 A 
ATOM     13  C12 UNK     1      45.015   2.030   6.944  1.00  0.00     0.037 A 
ATOM     14  C15 UNK     1      46.368   2.160   7.259  1.00  0.00     0.065 A 
ATOM     15  C13 UNK     1      46.878   1.553   8.407  1.00  0.00     0.037 A 
ATOM     16  C7  UNK     1      46.036   0.817   9.240  1.00  0.00     0.010 A 
BRANCH  14  17
ATOM     17  O5  UNK     1      47.189   2.881   6.448  1.00  0.00    -0.361 OA
ATOM     18  H14 UNK     1      47.220   3.799   6.766  1.00  0.00     0.217 HD
ENDBRANCH  14  17
ENDBRANCH  10  11
ENDBRANCH   9  10
ENDBRANCH   7   9
ENDBRANCH   1   7
BRANCH   2  19
ATOM     19  O2  UNK     1      41.750  -2.854   9.071  1.00  0.00    -0.360 OA
ATOM     20  H11 UNK     1      41.528  -3.154   9.967  1.00  0.00     0.217 HD
ENDBRANCH   2  19
BRANCH   3  21
ATOM     21  O3  UNK     1      39.201   1.212   9.149  1.00  0.00    -0.360 OA
ATOM     22  H12 UNK     1      38.350   1.527   8.797  1.00  0.00     0.217 HD
ENDBRANCH   3  21
BRANCH   6  23
ATOM     23  O4  UNK     1      38.277  -2.139   5.891  1.00  0.00    -0.361 OA
ATOM     24  H13 UNK     1      37.371  -2.332   6.186  1.00  0.00     0.217 HD
ENDBRANCH   6  23
TORSDOF 8
ENDMDL
MODEL 8
REMARK VINA RESULT:      -5.7      1.680      2.304
REMARK  8 active torsions:
REMARK  status: ('A' for Active; 'I' for Inactive)
REMARK    1  A    between atoms: O2_2  and  C8_13 
REMARK    2  A    between atoms: O3_3  and  C9_14 
REMARK    3  A    between atoms: O4_4  and  C14_19 
REMARK    4  A    between atoms: O5_5  and  C15_20 
REMARK    5  A    between atoms: C1_6  and  C2_7 
REMARK    6  A    between atoms: C1_6  and  C3_8 
REMARK    7  A    between atoms: C2_7  and  C4_9 
REMARK    8  A    between atoms: C4_9  and  C5_10 
ROOT
ATOM      1  C5  UNK     1      40.494  -0.807   9.125  1.00  0.00     0.076 A 
ATOM      2  C8  UNK     1      39.477  -0.008   8.603  1.00  0.00     0.085 A 
ATOM      3  C9  UNK     1      40.762  -2.053   8.558  1.00  0.00     0.085 A 
ATOM      4  C10 UNK     1      38.727  -0.456   7.515  1.00  0.00     0.074 A 
ATOM      5  C11 UNK     1      40.014  -2.500   7.471  1.00  0.00     0.074 A 
ATOM      6  C14 UNK     1      38.995  -1.702   6.949  1.00  0.00     0.071 A 
ENDROOT
BRANCH   1   7
ATOM      7  C4  UNK     1      41.278  -0.338  10.263  1.00  0.00     0.165 C 
ATOM      8  O1  UNK     1      41.006  -0.714  11.419  1.00  0.00    -0.292 OA
BRANCH   7   9
ATOM      9  C2  UNK     1      42.449   0.633  10.036  1.00  0.00     0.088 C 
BRANCH   9  10
ATOM     10  C1  UNK     1      43.789  -0.076   9.826  1.00  0.00     0.046 C 
BRANCH  10  11
ATOM     11  C3  UNK     1      44.700   0.713   8.921  1.00  0.00    -0.058 A 
ATOM     12  C6  UNK     1      44.177   1.324   7.792  1.00  0.00     0.010 A 
ATOM     13  C12 UNK     1      45.021   2.054   6.954  1.00  0.00     0.037 A 
ATOM     14  C15 UNK     1      46.379   2.162   7.255  1.00  0.00     0.065 A 
ATOM     15  C13 UNK     1      46.893   1.542   8.394  1.00  0.00     0.037 A 
ATOM     16  C7  UNK     1      46.049   0.813   9.232  1.00  0.00     0.010 A 
BRANCH  14  17
ATOM     17  O5  UNK     1      47.201   2.875   6.439  1.00  0.00    -0.361 OA
ATOM     18  H14 UNK     1      48.100   2.866   6.810  1.00  0.00     0.217 HD
ENDBRANCH  14  17
ENDBRANCH  10  11
ENDBRANCH   9  10
ENDBRANCH   7   9
ENDBRANCH   1   7
BRANCH   2  19
ATOM     19  O2  UNK     1      39.198   1.213   9.141  1.00  0.00    -0.360 OA
ATOM     20  H11 UNK     1      39.232   1.903   8.460  1.00  0.00     0.217 HD
ENDBRANCH   2  19
BRANCH   3  21
ATOM     21  O3  UNK     1      41.753  -2.849   9.053  1.00  0.00    -0.360 OA
ATOM     22  H12 UNK     1      41.374  -3.456   9.711  1.00  0.00     0.217 HD
ENDBRANCH   3  21
BRANCH   6  23
ATOM     23  O4  UNK     1      38.264  -2.139   5.888  1.00  0.00    -0.361 OA
ATOM     24  H13 UNK     1      38.868  -2.505   5.219  1.00  0.00     0.217 HD
ENDBRANCH   6  23
TORSDOF 8
ENDMDL
MODEL 9
REMARK VINA RESULT:      -5.6      1.494      6.066
REMARK  8 active torsions:
REMARK  status: ('A' for Active; 'I' for Inactive)
REMARK    1  A    between atoms: O2_2  and  C8_13 
REMARK    2  A    between atoms: O3_3  and  C9_14 
REMARK    3  A    between atoms: O4_4  and  C14_19 
REMARK    4  A    between atoms: O5_5  and  C15_20 
REMARK    5  A    between atoms: C1_6  and  C2_7 
REMARK    6  A    between atoms: C1_6  and  C3_8 
REMARK    7  A    between atoms: C2_7  and  C4_9 
REMARK    8  A    between atoms: C4_9  and  C5_10 
ROOT
ATOM      1  C5  UNK     1      44.302   0.702   8.998  1.00  0.00     0.076 A 
ATOM      2  C8  UNK     1      44.003   1.043   7.679  1.00  0.00     0.085 A 
ATOM      3  C9  UNK     1      45.544   1.032   9.539  1.00  0.00     0.085 A 
ATOM      4  C10 UNK     1      44.946   1.714   6.901  1.00  0.00     0.074 A 
ATOM      5  C11 UNK     1      46.488   1.703   8.762  1.00  0.00     0.074 A 
ATOM      6  C14 UNK     1      46.189   2.044   7.442  1.00  0.00     0.071 A 
ENDROOT
BRANCH   1   7
ATOM      7  C4  UNK     1      43.314   0.001   9.811  1.00  0.00     0.165 C 
ATOM      8  O1  UNK     1      43.173  -1.234   9.715  1.00  0.00    -0.292 OA
BRANCH   7   9
ATOM      9  C2  UNK     1      42.435   0.790  10.796  1.00  0.00     0.088 C 
BRANCH   9  10
ATOM     10  C1  UNK     1      40.967   0.360  10.773  1.00  0.00     0.046 C 
BRANCH  10  11
ATOM     11  C3  UNK     1      40.292   0.753   9.484  1.00  0.00    -0.058 A 
ATOM     12  C6  UNK     1      39.713  -0.227   8.691  1.00  0.00     0.010 A 
ATOM     13  C12 UNK     1      39.088   0.136   7.498  1.00  0.00     0.037 A 
ATOM     14  C15 UNK     1      39.050   1.477   7.111  1.00  0.00     0.065 A 
ATOM     15  C13 UNK     1      39.636   2.453   7.917  1.00  0.00     0.037 A 
ATOM     16  C7  UNK     1      40.260   2.089   9.110  1.00  0.00     0.010 A 
BRANCH  14  17
ATOM     17  O5  UNK     1      38.439   1.831   5.948  1.00  0.00    -0.361 OA
ATOM     18  H14 UNK     1      37.593   1.358   5.879  1.00  0.00     0.217 HD
ENDBRANCH  14  17
ENDBRANCH  10  11
ENDBRANCH   9  10
ENDBRANCH   7   9
ENDBRANCH   1   7
BRANCH   2  19
ATOM     19  O2  UNK     1      42.794   0.730   7.131  1.00  0.00    -0.360 OA
ATOM     20  H11 UNK     1      42.876   0.605   6.172  1.00  0.00     0.217 HD
ENDBRANCH   2  19
BRANCH   3  21
ATOM     21  O3  UNK     1      45.856   0.708  10.827  1.00  0.00    -0.360 OA
ATOM     22  H12 UNK     1      45.976   1.526  11.340  1.00  0.00     0.217 HD
ENDBRANCH   3  21
BRANCH   6  23
ATOM     23  O4  UNK     1      47.110   2.698   6.683  1.00  0.00    -0.361 OA
ATOM     24  H13 UNK     1      47.933   2.786   7.194  1.00  0.00     0.217 HD
ENDBRANCH   6  23
TORSDOF 8
ENDMDL
MODEL 10
REMARK VINA RESULT:      -5.6      1.494      6.002
REMARK  8 active torsions:
REMARK  status: ('A' for Active; 'I' for Inactive)
REMARK    1  A    between atoms: O2_2  and  C8_13 
REMARK    2  A    between atoms: O3_3  and  C9_14 
REMARK    3  A    between atoms: O4_4  and  C14_19 
REMARK    4  A    between atoms: O5_5  and  C15_20 
REMARK    5  A    between atoms: C1_6  and  C2_7 
REMARK    6  A    between atoms: C1_6  and  C3_8 
REMARK    7  A    between atoms: C2_7  and  C4_9 
REMARK    8  A    between atoms: C4_9  and  C5_10 
ROOT
ATOM      1  C5  UNK     1      44.305   0.698   9.000  1.00  0.00     0.076 A 
ATOM      2  C8  UNK     1      45.546   1.027   9.546  1.00  0.00     0.085 A 
ATOM      3  C9  UNK     1      44.010   1.046   7.682  1.00  0.00     0.085 A 
ATOM      4  C10 UNK     1      46.491   1.702   8.774  1.00  0.00     0.074 A 
ATOM      5  C11 UNK     1      44.954   1.721   6.910  1.00  0.00     0.074 A 
ATOM      6  C14 UNK     1      46.196   2.049   7.456  1.00  0.00     0.071 A 
ENDROOT
BRANCH   1   7
ATOM      7  C4  UNK     1      43.318  -0.009   9.808  1.00  0.00     0.165 C 
ATOM      8  O1  UNK     1      43.172  -1.241   9.699  1.00  0.00    -0.292 OA
BRANCH   7   9
ATOM      9  C2  UNK     1      42.443   0.773  10.804  1.00  0.00     0.088 C 
BRANCH   9  10
ATOM     10  C1  UNK     1      40.974   0.346  10.782  1.00  0.00     0.046 C 
BRANCH  10  11
ATOM     11  C3  UNK     1      40.300   0.737   9.492  1.00  0.00    -0.058 A 
ATOM     12  C6  UNK     1      39.738  -0.245   8.691  1.00  0.00     0.010 A 
ATOM     13  C12 UNK     1      39.113   0.118   7.498  1.00  0.00     0.037 A 
ATOM     14  C15 UNK     1      39.059   1.459   7.118  1.00  0.00     0.065 A 
ATOM     15  C13 UNK     1      39.629   2.438   7.933  1.00  0.00     0.037 A 
ATOM     16  C7  UNK     1      40.253   2.075   9.126  1.00  0.00     0.010 A 
BRANCH  14  17
ATOM     17  O5  UNK     1      38.449   1.813   5.955  1.00  0.00    -0.361 OA
ATOM     18  H14 UNK     1      37.528   2.060   6.144  1.00  0.00     0.217 HD
ENDBRANCH  14  17
ENDBRANCH  10  11
ENDBRANCH   9  10
ENDBRANCH   7   9
ENDBRANCH   1   7
BRANCH   2  19
ATOM     19  O2  UNK     1      45.856   0.697  10.832  1.00  0.00    -0.360 OA
ATOM     20  H11 UNK     1      46.793   0.872  11.014  1.00  0.00     0.217 HD
ENDBRANCH   2  19
BRANCH   3  21
ATOM     21  O3  UNK     1      42.803   0.733   7.129  1.00  0.00    -0.360 OA
ATOM     22  H12 UNK     1      42.547   1.436   6.507  1.00  0.00     0.217 HD
ENDBRANCH   3  21
BRANCH   6  23
ATOM     23  O4  UNK     1      47.117   2.709   6.703  1.00  0.00    -0.361 OA
ATOM     24  H13 UNK     1      47.089   2.361   5.795  1.00  0.00     0.217 HD
ENDBRANCH   6  23
TORSDOF 8
ENDMDL
MODEL 11
REMARK VINA RESULT:      -5.6      1.493      6.015
REMARK  8 active torsions:
REMARK  status: ('A' for Active; 'I' for Inactive)
REMARK    1  A    between atoms: O2_2  and  C8_13 
REMARK    2  A    between atoms: O3_3  and  C9_14 
REMARK    3  A    between atoms: O4_4  and  C14_19 
REMARK    4  A    between atoms: O5_5  and  C15_20 
REMARK    5  A    between atoms: C1_6  and  C2_7 
REMARK    6  A    between atoms: C1_6  and  C3_8 
REMARK    7  A    between atoms: C2_7  and  C4_9 
REMARK    8  A    between atoms: C4_9  and  C5_10 
ROOT
ATOM      1  C5  UNK     1      44.308   0.714   9.018  1.00  0.00     0.076 A 
ATOM      2  C8  UNK     1      45.545   1.051   9.569  1.00  0.00     0.085 A 
ATOM      3  C9  UNK     1      44.021   1.047   7.695  1.00  0.00     0.085 A 
ATOM      4  C10 UNK     1      46.493   1.722   8.797  1.00  0.00     0.074 A 
ATOM      5  C11 UNK     1      44.968   1.718   6.922  1.00  0.00     0.074 A 
ATOM      6  C14 UNK     1      46.205   2.056   7.474  1.00  0.00     0.071 A 
ENDROOT
BRANCH   1   7
ATOM      7  C4  UNK     1      43.318   0.011   9.826  1.00  0.00     0.165 C 
ATOM      8  O1  UNK     1      43.177  -1.223   9.727  1.00  0.00    -0.292 OA
BRANCH   7   9
ATOM      9  C2  UNK     1      42.435   0.799  10.808  1.00  0.00     0.088 C 
BRANCH   9  10
ATOM     10  C1  UNK     1      40.967   0.367  10.782  1.00  0.00     0.046 C 
BRANCH  10  11
ATOM     11  C3  UNK     1      40.295   0.758   9.491  1.00  0.00    -0.058 A 
ATOM     12  C6  UNK     1      40.261   2.093   9.117  1.00  0.00     0.010 A 
ATOM     13  C12 UNK     1      39.639   2.455   7.921  1.00  0.00     0.037 A 
ATOM     14  C15 UNK     1      39.056   1.477   7.114  1.00  0.00     0.065 A 
ATOM     15  C13 UNK     1      39.097   0.137   7.502  1.00  0.00     0.037 A 
ATOM     16  C7  UNK     1      39.720  -0.224   8.697  1.00  0.00     0.010 A 
BRANCH  14  17
ATOM     17  O5  UNK     1      38.451   1.829   5.948  1.00  0.00    -0.361 OA
ATOM     18  H14 UNK     1      37.896   2.611   6.105  1.00  0.00     0.217 HD
ENDBRANCH  14  17
ENDBRANCH  10  11
ENDBRANCH   9  10
ENDBRANCH   7   9
ENDBRANCH   1   7
BRANCH   2  19
ATOM     19  O2  UNK     1      45.847   0.734  10.860  1.00  0.00    -0.360 OA
ATOM     20  H11 UNK     1      45.933  -0.227  10.966  1.00  0.00     0.217 HD
ENDBRANCH   2  19
BRANCH   3  21
ATOM     21  O3  UNK     1      42.819   0.726   7.136  1.00  0.00    -0.360 OA
ATOM     22  H12 UNK     1      42.228   1.498   7.187  1.00  0.00     0.217 HD
ENDBRANCH   3  21
BRANCH   6  23
ATOM     23  O4  UNK     1      47.129   2.711   6.720  1.00  0.00    -0.361 OA
ATOM     24  H13 UNK     1      48.010   2.570   7.108  1.00  0.00     0.217 HD
ENDBRANCH   6  23
TORSDOF 8
ENDMDL
MODEL 12
REMARK VINA RESULT:      -5.6      4.380      6.233
REMARK  8 active torsions:
REMARK  status: ('A' for Active; 'I' for Inactive)
REMARK    1  A    between atoms: O2_2  and  C8_13 
REMARK    2  A    between atoms: O3_3  and  C9_14 
REMARK    3  A    between atoms: O4_4  and  C14_19 
REMARK    4  A    between atoms: O5_5  and  C15_20 
REMARK    5  A    between atoms: C1_6  and  C2_7 
REMARK    6  A    between atoms: C1_6  and  C3_8 
REMARK    7  A    between atoms: C2_7  and  C4_9 
REMARK    8  A    between atoms: C4_9  and  C5_10 
ROOT
ATOM      1  C5  UNK     1      39.921  -2.204   8.952  1.00  0.00     0.076 A 
ATOM      2  C8  UNK     1      41.107  -1.598   9.367  1.00  0.00     0.085 A 
ATOM      3  C9  UNK     1      39.167  -2.952   9.857  1.00  0.00     0.085 A 
ATOM      4  C10 UNK     1      41.540  -1.742  10.685  1.00  0.00     0.074 A 
ATOM      5  C11 UNK     1      39.599  -3.095  11.174  1.00  0.00     0.074 A 
ATOM      6  C14 UNK     1      40.786  -2.490  11.589  1.00  0.00     0.071 A 
ENDROOT
BRANCH   1   7
ATOM      7  C4  UNK     1      39.469  -2.053   7.574  1.00  0.00     0.165 C 
ATOM      8  O1  UNK     1      39.623  -2.975   6.750  1.00  0.00    -0.292 OA
BRANCH   7   9
ATOM      9  C2  UNK     1      38.797  -0.743   7.128  1.00  0.00     0.088 C 
BRANCH   9  10
ATOM     10  C1  UNK     1      37.995  -0.066   8.241  1.00  0.00     0.046 C 
BRANCH  10  11
ATOM     11  C3  UNK     1      38.680   1.178   8.745  1.00  0.00    -0.058 A 
ATOM     12  C6  UNK     1      39.602   1.824   7.935  1.00  0.00     0.010 A 
ATOM     13  C12 UNK     1      40.236   2.976   8.401  1.00  0.00     0.037 A 
ATOM     14  C15 UNK     1      39.942   3.468   9.673  1.00  0.00     0.065 A 
ATOM     15  C13 UNK     1      39.012   2.809  10.478  1.00  0.00     0.037 A 
ATOM     16  C7  UNK     1      38.378   1.658  10.011  1.00  0.00     0.010 A 
BRANCH  14  17
ATOM     17  O5  UNK     1      40.559   4.592  10.127  1.00  0.00    -0.361 OA
ATOM     18  H14 UNK     1      39.901   5.160  10.562  1.00  0.00     0.217 HD
ENDBRANCH  14  17
ENDBRANCH  10  11
ENDBRANCH   9  10
ENDBRANCH   7   9
ENDBRANCH   1   7
BRANCH   2  19
ATOM     19  O2  UNK     1      41.859  -0.862   8.500  1.00  0.00    -0.360 OA
ATOM     20  H11 UNK     1      41.784  -1.213   7.598  1.00  0.00     0.217 HD
ENDBRANCH   2  19
BRANCH   3  21
ATOM     21  O3  UNK     1      38.004  -3.551   9.472  1.00  0.00    -0.360 OA
ATOM     22  H12 UNK     1      37.596  -3.979  10.245  1.00  0.00     0.217 HD
ENDBRANCH   3  21
BRANCH   6  23
ATOM     23  O4  UNK     1      41.208  -2.630  12.875  1.00  0.00    -0.361 OA
ATOM     24  H13 UNK     1      40.890  -1.873  13.395  1.00  0.00     0.217 HD
ENDBRANCH   6  23
TORSDOF 8
ENDMDL
MODEL 13
REMARK VINA RESULT:      -5.6      4.383      6.450
REMARK  8 active torsions:
REMARK  status: ('A' for Active; 'I' for Inactive)
REMARK    1  A    between atoms: O2_2  and  C8_13 
REMARK    2  A    between atoms: O3_3  and  C9_14 
REMARK    3  A    between atoms: O4_4  and  C14_19 
REMARK    4  A    between atoms: O5_5  and  C15_20 
REMARK    5  A    between atoms: C1_6  and  C2_7 
REMARK    6  A    between atoms: C1_6  and  C3_8 
REMARK    7  A    between atoms: C2_7  and  C4_9 
REMARK    8  A    between atoms: C4_9  and  C5_10 
ROOT
ATOM      1  C5  UNK     1      39.925  -2.199   8.945  1.00  0.00     0.076 A 
ATOM      2  C8  UNK     1      39.171  -2.955   9.842  1.00  0.00     0.085 A 
ATOM      3  C9  UNK     1      41.104  -1.585   9.370  1.00  0.00     0.085 A 
ATOM      4  C10 UNK     1      39.595  -3.097  11.163  1.00  0.00     0.074 A 
ATOM      5  C11 UNK     1      41.528  -1.727  10.690  1.00  0.00     0.074 A 
ATOM      6  C14 UNK     1      40.773  -2.483  11.588  1.00  0.00     0.071 A 
ENDROOT
BRANCH   1   7
ATOM      7  C4  UNK     1      39.482  -2.051   7.563  1.00  0.00     0.165 C 
ATOM      8  O1  UNK     1      39.654  -2.970   6.739  1.00  0.00    -0.292 OA
BRANCH   7   9
ATOM      9  C2  UNK     1      38.796  -0.749   7.115  1.00  0.00     0.088 C 
BRANCH   9  10
ATOM     10  C1  UNK     1      37.991  -0.076   8.228  1.00  0.00     0.046 C 
BRANCH  10  11
ATOM     11  C3  UNK     1      38.675   1.166   8.738  1.00  0.00    -0.058 A 
ATOM     12  C6  UNK     1      38.382   1.632  10.011  1.00  0.00     0.010 A 
ATOM     13  C12 UNK     1      39.016   2.782  10.482  1.00  0.00     0.037 A 
ATOM     14  C15 UNK     1      39.934   3.455   9.674  1.00  0.00     0.065 A 
ATOM     15  C13 UNK     1      40.218   2.975   8.395  1.00  0.00     0.037 A 
ATOM     16  C7  UNK     1      39.585   1.825   7.924  1.00  0.00     0.010 A 
BRANCH  14  17
ATOM     17  O5  UNK     1      40.552   4.575  10.134  1.00  0.00    -0.361 OA
ATOM     18  H14 UNK     1      40.074   4.902  10.915  1.00  0.00     0.217 HD
ENDBRANCH  14  17
ENDBRANCH  10  11
ENDBRANCH   9  10
ENDBRANCH   7   9
ENDBRANCH   1   7
BRANCH   2  19
ATOM     19  O2  UNK     1      38.016  -3.564   9.448  1.00  0.00    -0.360 OA
ATOM     20  H11 UNK     1      37.712  -4.190  10.124  1.00  0.00     0.217 HD
ENDBRANCH   2  19
BRANCH   3  21
ATOM     21  O3  UNK     1      41.856  -0.842   8.509  1.00  0.00    -0.360 OA
ATOM     22  H12 UNK     1      41.354  -0.700   7.688  1.00  0.00     0.217 HD
ENDBRANCH   3  21
BRANCH   6  23
ATOM     23  O4  UNK     1      41.186  -2.621  12.877  1.00  0.00    -0.361 OA
ATOM     24  H13 UNK     1      42.155  -2.714  12.889  1.00  0.00     0.217 HD
ENDBRANCH   6  23
TORSDOF 8
ENDMDL
MODEL 14
REMARK VINA RESULT:      -5.6      1.346      2.012
REMARK  8 active torsions:
REMARK  status: ('A' for Active; 'I' for Inactive)
REMARK    1  A    between atoms: O2_2  and  C8_13 
REMARK    2  A    between atoms: O3_3  and  C9_14 
REMARK    3  A    between atoms: O4_4  and  C14_19 
REMARK    4  A    between atoms: O5_5  and  C15_20 
REMARK    5  A    between atoms: C1_6  and  C2_7 
REMARK    6  A    between atoms: C1_6  and  C3_8 
REMARK    7  A    between atoms: C2_7  and  C4_9 
REMARK    8  A    between atoms: C4_9  and  C5_10 
ROOT
ATOM      1  C5  UNK     1      41.092  -0.515   8.657  1.00  0.00     0.076 A 
ATOM      2  C8  UNK     1      40.151   0.363   8.117  1.00  0.00     0.085 A 
ATOM      3  C9  UNK     1      40.912  -1.892   8.532  1.00  0.00     0.085 A 
ATOM      4  C10 UNK     1      39.031  -0.137   7.454  1.00  0.00     0.074 A 
ATOM      5  C11 UNK     1      39.792  -2.393   7.869  1.00  0.00     0.074 A 
ATOM      6  C14 UNK     1      38.851  -1.515   7.330  1.00  0.00     0.071 A 
ENDROOT
BRANCH   1   7
ATOM      7  C4  UNK     1      42.264   0.009   9.350  1.00  0.00     0.165 C 
ATOM      8  O1  UNK     1      42.331  -0.020  10.594  1.00  0.00    -0.292 OA
BRANCH   7   9
ATOM      9  C2  UNK     1      43.427   0.607   8.540  1.00  0.00     0.088 C 
BRANCH   9  10
ATOM     10  C1  UNK     1      44.740   0.666   9.324  1.00  0.00     0.046 C 
BRANCH  10  11
ATOM     11  C3  UNK     1      45.854   1.260   8.500  1.00  0.00    -0.058 A 
ATOM     12  C6  UNK     1      45.544   2.046   7.401  1.00  0.00     0.010 A 
ATOM     13  C12 UNK     1      46.575   2.596   6.639  1.00  0.00     0.037 A 
ATOM     14  C15 UNK     1      47.905   2.351   6.984  1.00  0.00     0.065 A 
ATOM     15  C13 UNK     1      48.203   1.557   8.092  1.00  0.00     0.037 A 
ATOM     16  C7  UNK     1      47.172   1.008   8.854  1.00  0.00     0.010 A 
BRANCH  14  17
ATOM     17  O5  UNK     1      48.910   2.888   6.241  1.00  0.00    -0.361 OA
ATOM     18  H14 UNK     1      48.622   2.946   5.315  1.00  0.00     0.217 HD
ENDBRANCH  14  17
ENDBRANCH  10  11
ENDBRANCH   9  10
ENDBRANCH   7   9
ENDBRANCH   1   7
BRANCH   2  19
ATOM     19  O2  UNK     1      40.308   1.713   8.227  1.00  0.00    -0.360 OA
ATOM     20  H11 UNK     1      39.621   2.092   8.798  1.00  0.00     0.217 HD
ENDBRANCH   2  19
BRANCH   3  21
ATOM     21  O3  UNK     1      41.820  -2.767   9.052  1.00  0.00    -0.360 OA
ATOM     22  H12 UNK     1      41.357  -3.402   9.626  1.00  0.00     0.217 HD
ENDBRANCH   3  21
BRANCH   6  23
ATOM     23  O4  UNK     1      37.758  -2.003   6.683  1.00  0.00    -0.361 OA
ATOM     24  H13 UNK     1      38.048  -2.649   6.017  1.00  0.00     0.217 HD
ENDBRANCH   6  23
TORSDOF 8
ENDMDL
MODEL 15
REMARK VINA RESULT:      -5.6      1.349      2.342
REMARK  8 active torsions:
REMARK  status: ('A' for Active; 'I' for Inactive)
REMARK    1  A    between atoms: O2_2  and  C8_13 
REMARK    2  A    between atoms: O3_3  and  C9_14 
REMARK    3  A    between atoms: O4_4  and  C14_19 
REMARK    4  A    between atoms: O5_5  and  C15_20 
REMARK    5  A    between atoms: C1_6  and  C2_7 
REMARK    6  A    between atoms: C1_6  and  C3_8 
REMARK    7  A    between atoms: C2_7  and  C4_9 
REMARK    8  A    between atoms: C4_9  and  C5_10 
ROOT
ATOM      1  C5  UNK     1      41.065  -0.530   8.653  1.00  0.00     0.076 A 
ATOM      2  C8  UNK     1      40.897  -1.907   8.512  1.00  0.00     0.085 A 
ATOM      3  C9  UNK     1      40.122   0.346   8.114  1.00  0.00     0.085 A 
ATOM      4  C10 UNK     1      39.787  -2.409   7.832  1.00  0.00     0.074 A 
ATOM      5  C11 UNK     1      39.013  -0.155   7.435  1.00  0.00     0.074 A 
ATOM      6  C14 UNK     1      38.845  -1.533   7.293  1.00  0.00     0.071 A 
ENDROOT
BRANCH   1   7
ATOM      7  C4  UNK     1      42.225  -0.006   9.365  1.00  0.00     0.165 C 
ATOM      8  O1  UNK     1      42.282  -0.055  10.609  1.00  0.00    -0.292 OA
BRANCH   7   9
ATOM      9  C2  UNK     1      43.390   0.615   8.576  1.00  0.00     0.088 C 
BRANCH   9  10
ATOM     10  C1  UNK     1      44.713   0.608   9.345  1.00  0.00     0.046 C 
BRANCH  10  11
ATOM     11  C3  UNK     1      45.832   1.210   8.534  1.00  0.00    -0.058 A 
ATOM     12  C6  UNK     1      47.146   0.945   8.886  1.00  0.00     0.010 A 
ATOM     13  C12 UNK     1      48.183   1.501   8.135  1.00  0.00     0.037 A 
ATOM     14  C15 UNK     1      47.891   2.318   7.041  1.00  0.00     0.065 A 
ATOM     15  C13 UNK     1      46.563   2.577   6.699  1.00  0.00     0.037 A 
ATOM     16  C7  UNK     1      45.528   2.020   7.449  1.00  0.00     0.010 A 
BRANCH  14  17
ATOM     17  O5  UNK     1      48.901   2.859   6.308  1.00  0.00    -0.361 OA
ATOM     18  H14 UNK     1      49.658   3.031   6.893  1.00  0.00     0.217 HD
ENDBRANCH  14  17
ENDBRANCH  10  11
ENDBRANCH   9  10
ENDBRANCH   7   9
ENDBRANCH   1   7
BRANCH   2  19
ATOM     19  O2  UNK     1      41.805  -2.781   9.032  1.00  0.00    -0.360 OA
ATOM     20  H11 UNK     1      41.698  -3.661   8.637  1.00  0.00     0.217 HD
ENDBRANCH   2  19
BRANCH   3  21
ATOM     21  O3  UNK     1      40.267   1.696   8.241  1.00  0.00    -0.360 OA
ATOM     22  H12 UNK     1      41.129   1.886   8.650  1.00  0.00     0.217 HD
ENDBRANCH   3  21
BRANCH   6  23
ATOM     23  O4  UNK     1      37.763  -2.022   6.629  1.00  0.00    -0.361 OA
ATOM     24  H13 UNK     1      36.960  -1.597   6.979  1.00  0.00     0.217 HD
ENDBRANCH   6  23
TORSDOF 8
ENDMDL
MODEL 16
REMARK VINA RESULT:      -5.6      5.453      8.857
REMARK  8 active torsions:
REMARK  status: ('A' for Active; 'I' for Inactive)
REMARK    1  A    between atoms: O2_2  and  C8_13 
REMARK    2  A    between atoms: O3_3  and  C9_14 
REMARK    3  A    between atoms: O4_4  and  C14_19 
REMARK    4  A    between atoms: O5_5  and  C15_20 
REMARK    5  A    between atoms: C1_6  and  C2_7 
REMARK    6  A    between atoms: C1_6  and  C3_8 
REMARK    7  A    between atoms: C2_7  and  C4_9 
REMARK    8  A    between atoms: C4_9  and  C5_10 
ROOT
ATOM      1  C5  UNK     1      37.855  -2.026   8.138  1.00  0.00     0.076 A 
ATOM      2  C8  UNK     1      38.786  -2.140   7.106  1.00  0.00     0.085 A 
ATOM      3  C9  UNK     1      38.268  -2.145   9.465  1.00  0.00     0.085 A 
ATOM      4  C10 UNK     1      40.130  -2.372   7.400  1.00  0.00     0.074 A 
ATOM      5  C11 UNK     1      39.611  -2.377   9.760  1.00  0.00     0.074 A 
ATOM      6  C14 UNK     1      40.543  -2.491   8.727  1.00  0.00     0.071 A 
ENDROOT
BRANCH   1   7
ATOM      7  C4  UNK     1      36.451  -1.783   7.829  1.00  0.00     0.165 C 
ATOM      8  O1  UNK     1      36.046  -0.631   7.580  1.00  0.00    -0.292 OA
BRANCH   7   9
ATOM      9  C2  UNK     1      35.457  -2.956   7.813  1.00  0.00     0.088 C 
BRANCH   9  10
ATOM     10  C1  UNK     1      35.313  -3.607   6.436  1.00  0.00     0.046 C 
BRANCH  10  11
ATOM     11  C3  UNK     1      36.267  -4.761   6.262  1.00  0.00    -0.058 A 
ATOM     12  C6  UNK     1      36.647  -5.503   7.370  1.00  0.00     0.010 A 
ATOM     13  C12 UNK     1      37.530  -6.572   7.209  1.00  0.00     0.037 A 
ATOM     14  C15 UNK     1      38.024  -6.884   5.942  1.00  0.00     0.065 A 
ATOM     15  C13 UNK     1      37.634  -6.128   4.836  1.00  0.00     0.037 A 
ATOM     16  C7  UNK     1      36.750  -5.061   4.997  1.00  0.00     0.010 A 
BRANCH  14  17
ATOM     17  O5  UNK     1      38.884  -7.926   5.785  1.00  0.00    -0.361 OA
ATOM     18  H14 UNK     1      38.417  -8.657   5.347  1.00  0.00     0.217 HD
ENDBRANCH  14  17
ENDBRANCH  10  11
ENDBRANCH   9  10
ENDBRANCH   7   9
ENDBRANCH   1   7
BRANCH   2  19
ATOM     19  O2  UNK     1      38.405  -2.027   5.802  1.00  0.00    -0.360 OA
ATOM     20  H11 UNK     1      38.974  -1.396   5.332  1.00  0.00     0.217 HD
ENDBRANCH   2  19
BRANCH   3  21
ATOM     21  O3  UNK     1      37.374  -2.036  10.489  1.00  0.00    -0.360 OA
ATOM     22  H12 UNK     1      36.473  -2.127  10.136  1.00  0.00     0.217 HD
ENDBRANCH   3  21
BRANCH   6  23
ATOM     23  O4  UNK     1      41.853  -2.718   9.015  1.00  0.00    -0.361 OA
ATOM     24  H13 UNK     1      42.119  -3.567   8.623  1.00  0.00     0.217 HD
ENDBRANCH   6  23
TORSDOF 8
ENDMDL
MODEL 17
REMARK VINA RESULT:      -5.5      1.346      1.697
REMARK  8 active torsions:
REMARK  status: ('A' for Active; 'I' for Inactive)
REMARK    1  A    between atoms: O2_2  and  C8_13 
REMARK    2  A    between atoms: O3_3  and  C9_14 
REMARK    3  A    between atoms: O4_4  and  C14_19 
REMARK    4  A    between atoms: O5_5  and  C15_20 
REMARK    5  A    between atoms: C1_6  and  C2_7 
REMARK    6  A    between atoms: C1_6  and  C3_8 
REMARK    7  A    between atoms: C2_7  and  C4_9 
REMARK    8  A    between atoms: C4_9  and  C5_10 
ROOT
ATOM      1  C5  UNK     1      41.018  -0.495   8.662  1.00  0.00     0.076 A 
ATOM      2  C8  UNK     1      40.048   0.374   8.164  1.00  0.00     0.085 A 
ATOM      3  C9  UNK     1      40.878  -1.872   8.484  1.00  0.00     0.085 A 
ATOM      4  C10 UNK     1      38.938  -0.133   7.488  1.00  0.00     0.074 A 
ATOM      5  C11 UNK     1      39.769  -2.379   7.809  1.00  0.00     0.074 A 
ATOM      6  C14 UNK     1      38.798  -1.509   7.310  1.00  0.00     0.071 A 
ENDROOT
BRANCH   1   7
ATOM      7  C4  UNK     1      42.179   0.036   9.368  1.00  0.00     0.165 C 
ATOM      8  O1  UNK     1      42.233   0.006  10.613  1.00  0.00    -0.292 OA
BRANCH   7   9
ATOM      9  C2  UNK     1      43.347   0.641   8.572  1.00  0.00     0.088 C 
BRANCH   9  10
ATOM     10  C1  UNK     1      44.683   0.575   9.315  1.00  0.00     0.046 C 
BRANCH  10  11
ATOM     11  C3  UNK     1      45.800   1.186   8.508  1.00  0.00    -0.058 A 
ATOM     12  C6  UNK     1      47.114   0.981   8.899  1.00  0.00     0.010 A 
ATOM     13  C12 UNK     1      48.148   1.546   8.152  1.00  0.00     0.037 A 
ATOM     14  C15 UNK     1      47.855   2.312   7.022  1.00  0.00     0.065 A 
ATOM     15  C13 UNK     1      46.528   2.511   6.640  1.00  0.00     0.037 A 
ATOM     16  C7  UNK     1      45.495   1.945   7.387  1.00  0.00     0.010 A 
BRANCH  14  17
ATOM     17  O5  UNK     1      48.863   2.862   6.293  1.00  0.00    -0.361 OA
ATOM     18  H14 UNK     1      49.675   2.861   6.827  1.00  0.00     0.217 HD
ENDBRANCH  14  17
ENDBRANCH  10  11
ENDBRANCH   9  10
ENDBRANCH   7   9
ENDBRANCH   1   7
BRANCH   2  19
ATOM     19  O2  UNK     1      40.165   1.723   8.326  1.00  0.00    -0.360 OA
ATOM     20  H11 UNK     1      41.092   1.971   8.469  1.00  0.00     0.217 HD
ENDBRANCH   2  19
BRANCH   3  21
ATOM     21  O3  UNK     1      41.816  -2.739   8.963  1.00  0.00    -0.360 OA
ATOM     22  H12 UNK     1      41.514  -3.094   9.817  1.00  0.00     0.217 HD
ENDBRANCH   3  21
BRANCH   6  23
ATOM     23  O4  UNK     1      37.715  -2.004   6.652  1.00  0.00    -0.361 OA
ATOM     24  H13 UNK     1      37.823  -1.839   5.699  1.00  0.00     0.217 HD
ENDBRANCH   6  23
TORSDOF 8
ENDMDL
MODEL 18
REMARK VINA RESULT:      -5.5      5.472      8.921
REMARK  8 active torsions:
REMARK  status: ('A' for Active; 'I' for Inactive)
REMARK    1  A    between atoms: O2_2  and  C8_13 
REMARK    2  A    between atoms: O3_3  and  C9_14 
REMARK    3  A    between atoms: O4_4  and  C14_19 
REMARK    4  A    between atoms: O5_5  and  C15_20 
REMARK    5  A    between atoms: C1_6  and  C2_7 
REMARK    6  A    between atoms: C1_6  and  C3_8 
REMARK    7  A    between atoms: C2_7  and  C4_9 
REMARK    8  A    between atoms: C4_9  and  C5_10 
ROOT
ATOM      1  C5  UNK     1      37.839  -2.045   8.177  1.00  0.00     0.076 A 
ATOM      2  C8  UNK     1      38.263  -2.178   9.499  1.00  0.00     0.085 A 
ATOM      3  C9  UNK     1      38.762  -2.147   7.136  1.00  0.00     0.085 A 
ATOM      4  C10 UNK     1      39.609  -2.411   9.781  1.00  0.00     0.074 A 
ATOM      5  C11 UNK     1      40.108  -2.381   7.417  1.00  0.00     0.074 A 
ATOM      6  C14 UNK     1      40.532  -2.513   8.740  1.00  0.00     0.071 A 
ENDROOT
BRANCH   1   7
ATOM      7  C4  UNK     1      36.432  -1.801   7.884  1.00  0.00     0.165 C 
ATOM      8  O1  UNK     1      36.029  -0.654   7.612  1.00  0.00    -0.292 OA
BRANCH   7   9
ATOM      9  C2  UNK     1      35.431  -2.969   7.912  1.00  0.00     0.088 C 
BRANCH   9  10
ATOM     10  C1  UNK     1      35.242  -3.636   6.547  1.00  0.00     0.046 C 
BRANCH  10  11
ATOM     11  C3  UNK     1      36.217  -4.765   6.339  1.00  0.00    -0.058 A 
ATOM     12  C6  UNK     1      36.711  -5.014   5.068  1.00  0.00     0.010 A 
ATOM     13  C12 UNK     1      37.615  -6.059   4.875  1.00  0.00     0.037 A 
ATOM     14  C15 UNK     1      38.013  -6.846   5.957  1.00  0.00     0.065 A 
ATOM     15  C13 UNK     1      37.508  -6.585   7.231  1.00  0.00     0.037 A 
ATOM     16  C7  UNK     1      36.605  -5.540   7.423  1.00  0.00     0.010 A 
BRANCH  14  17
ATOM     17  O5  UNK     1      38.894  -7.864   5.769  1.00  0.00    -0.361 OA
ATOM     18  H14 UNK     1      39.344  -8.051   6.610  1.00  0.00     0.217 HD
ENDBRANCH  14  17
ENDBRANCH  10  11
ENDBRANCH   9  10
ENDBRANCH   7   9
ENDBRANCH   1   7
BRANCH   2  19
ATOM     19  O2  UNK     1      37.378  -2.082  10.532  1.00  0.00    -0.360 OA
ATOM     20  H11 UNK     1      36.474  -1.968  10.199  1.00  0.00     0.217 HD
ENDBRANCH   2  19
BRANCH   3  21
ATOM     21  O3  UNK     1      38.369  -2.021   5.836  1.00  0.00    -0.360 OA
ATOM     22  H12 UNK     1      39.140  -1.783   5.293  1.00  0.00     0.217 HD
ENDBRANCH   3  21
BRANCH   6  23
ATOM     23  O4  UNK     1      41.845  -2.740   9.014  1.00  0.00    -0.361 OA
ATOM     24  H13 UNK     1      42.326  -2.856   8.176  1.00  0.00     0.217 HD
ENDBRANCH   6  23
TORSDOF 8
ENDMDL
MODEL 19
REMARK VINA RESULT:      -5.5      1.375      6.467
REMARK  8 active torsions:
REMARK  status: ('A' for Active; 'I' for Inactive)
REMARK    1  A    between atoms: O2_2  and  C8_13 
REMARK    2  A    between atoms: O3_3  and  C9_14 
REMARK    3  A    between atoms: O4_4  and  C14_19 
REMARK    4  A    between atoms: O5_5  and  C15_20 
REMARK    5  A    between atoms: C1_6  and  C2_7 
REMARK    6  A    between atoms: C1_6  and  C3_8 
REMARK    7  A    between atoms: C2_7  and  C4_9 
REMARK    8  A    between atoms: C4_9  and  C5_10 
ROOT
ATOM      1  C5  UNK     1      45.656   1.357   8.810  1.00  0.00     0.076 A 
ATOM      2  C8  UNK     1      45.349   2.238   7.773  1.00  0.00     0.085 A 
ATOM      3  C9  UNK     1      46.953   0.859   8.939  1.00  0.00     0.085 A 
ATOM      4  C10 UNK     1      46.336   2.619   6.865  1.00  0.00     0.074 A 
ATOM      5  C11 UNK     1      47.941   1.240   8.032  1.00  0.00     0.074 A 
ATOM      6  C14 UNK     1      47.632   2.120   6.994  1.00  0.00     0.071 A 
ENDROOT
BRANCH   1   7
ATOM      7  C4  UNK     1      44.623   0.960   9.759  1.00  0.00     0.165 C 
ATOM      8  O1  UNK     1      44.649   1.371  10.936  1.00  0.00    -0.292 OA
BRANCH   7   9
ATOM      9  C2  UNK     1      43.490   0.023   9.308  1.00  0.00     0.088 C 
BRANCH   9  10
ATOM     10  C1  UNK     1      42.142   0.348   9.956  1.00  0.00     0.046 C 
BRANCH  10  11
ATOM     11  C3  UNK     1      41.099   0.699   8.926  1.00  0.00    -0.058 A 
ATOM     12  C6  UNK     1      40.950   2.018   8.528  1.00  0.00     0.010 A 
ATOM     13  C12 UNK     1      39.985   2.343   7.575  1.00  0.00     0.037 A 
ATOM     14  C15 UNK     1      39.178   1.342   7.031  1.00  0.00     0.065 A 
ATOM     15  C13 UNK     1      39.338   0.018   7.440  1.00  0.00     0.037 A 
ATOM     16  C7  UNK     1      40.304  -0.306   8.393  1.00  0.00     0.010 A 
BRANCH  14  17
ATOM     17  O5  UNK     1      38.238   1.658   6.100  1.00  0.00    -0.361 OA
ATOM     18  H14 UNK     1      38.346   1.073   5.331  1.00  0.00     0.217 HD
ENDBRANCH  14  17
ENDBRANCH  10  11
ENDBRANCH   9  10
ENDBRANCH   7   9
ENDBRANCH   1   7
BRANCH   2  19
ATOM     19  O2  UNK     1      44.088   2.738   7.628  1.00  0.00    -0.360 OA
ATOM     20  H11 UNK     1      43.927   3.450   8.267  1.00  0.00     0.217 HD
ENDBRANCH   2  19
BRANCH   3  21
ATOM     21  O3  UNK     1      47.275  -0.002   9.946  1.00  0.00    -0.360 OA
ATOM     22  H12 UNK     1      47.171   0.453  10.800  1.00  0.00     0.217 HD
ENDBRANCH   3  21
BRANCH   6  23
ATOM     23  O4  UNK     1      48.596   2.491   6.108  1.00  0.00    -0.361 OA
ATOM     24  H13 UNK     1      49.081   1.698   5.820  1.00  0.00     0.217 HD
ENDBRANCH   6  23
TORSDOF 8
ENDMDL
MODEL 20
REMARK VINA RESULT:      -5.3      2.228      3.953
REMARK  8 active torsions:
REMARK  status: ('A' for Active; 'I' for Inactive)
REMARK    1  A    between atoms: O2_2  and  C8_13 
REMARK    2  A    between atoms: O3_3  and  C9_14 
REMARK    3  A    between atoms: O4_4  and  C14_19 
REMARK    4  A    between atoms: O5_5  and  C15_20 
REMARK    5  A    between atoms: C1_6  and  C2_7 
REMARK    6  A    between atoms: C1_6  and  C3_8 
REMARK    7  A    between atoms: C2_7  and  C4_9 
REMARK    8  A    between atoms: C4_9  and  C5_10 
ROOT
ATOM      1  C5  UNK     1      39.887  -0.230   9.310  1.00  0.00     0.076 A 
ATOM      2  C8  UNK     1      40.359  -0.261  10.622  1.00  0.00     0.085 A 
ATOM      3  C9  UNK     1      40.143  -1.300   8.452  1.00  0.00     0.085 A 
ATOM      4  C10 UNK     1      41.087  -1.361  11.076  1.00  0.00     0.074 A 
ATOM      5  C11 UNK     1      40.870  -2.400   8.905  1.00  0.00     0.074 A 
ATOM      6  C14 UNK     1      41.343  -2.430  10.218  1.00  0.00     0.071 A 
ENDROOT
BRANCH   1   7
ATOM      7  C4  UNK     1      39.126   0.920   8.836  1.00  0.00     0.165 C 
ATOM      8  O1  UNK     1      37.921   1.048   9.126  1.00  0.00    -0.292 OA
BRANCH   7   9
ATOM      9  C2  UNK     1      39.814   1.986   7.966  1.00  0.00     0.088 C 
BRANCH   9  10
ATOM     10  C1  UNK     1      40.799   2.859   8.746  1.00  0.00     0.046 C 
BRANCH  10  11
ATOM     11  C3  UNK     1      42.225   2.587   8.343  1.00  0.00    -0.058 A 
ATOM     12  C6  UNK     1      43.241   3.382   8.851  1.00  0.00     0.010 A 
ATOM     13  C12 UNK     1      44.561   3.130   8.477  1.00  0.00     0.037 A 
ATOM     14  C15 UNK     1      44.850   2.086   7.598  1.00  0.00     0.065 A 
ATOM     15  C13 UNK     1      43.818   1.294   7.093  1.00  0.00     0.037 A 
ATOM     16  C7  UNK     1      42.498   1.546   7.467  1.00  0.00     0.010 A 
BRANCH  14  17
ATOM     17  O5  UNK     1      46.137   1.839   7.235  1.00  0.00    -0.361 OA
ATOM     18  H14 UNK     1      46.687   2.601   7.484  1.00  0.00     0.217 HD
ENDBRANCH  14  17
ENDBRANCH  10  11
ENDBRANCH   9  10
ENDBRANCH   7   9
ENDBRANCH   1   7
BRANCH   2  19
ATOM     19  O2  UNK     1      40.120   0.773  11.477  1.00  0.00    -0.360 OA
ATOM     20  H11 UNK     1      39.199   0.760  11.783  1.00  0.00     0.217 HD
ENDBRANCH   2  19
BRANCH   3  21
ATOM     21  O3  UNK     1      39.690  -1.290   7.166  1.00  0.00    -0.360 OA
ATOM     22  H12 UNK     1      40.439  -1.444   6.564  1.00  0.00     0.217 HD
ENDBRANCH   3  21
BRANCH   6  23
ATOM     23  O4  UNK     1      42.053  -3.503  10.661  1.00  0.00    -0.361 OA
ATOM     24  H13 UNK     1      42.816  -3.186  11.174  1.00  0.00     0.217 HD
ENDBRANCH   6  23
TORSDOF 8
ENDMDL
