MODEL 1
REMARK VINA RESULT:      -8.3      0.000      0.000
REMARK  8 active torsions:
REMARK  status: ('A' for Active; 'I' for Inactive)
REMARK    1  A    between atoms: O2_2  and  C8_13 
REMARK    2  A    between atoms: O3_3  and  C9_14 
REMARK    3  A    between atoms: O4_4  and  C14_19 
REMARK    4  A    between atoms: O5_5  and  C15_20 
REMARK    5  A    between atoms: C1_6  and  C2_7 
REMARK    6  A    between atoms: C1_6  and  C3_8 
REMARK    7  A    between atoms: C2_7  and  C4_9 
REMARK    8  A    between atoms: C4_9  and  C5_10 
ROOT
ATOM      1  C5  UNK     1      40.221  13.117  -1.434  1.00  0.00     0.076 A 
ATOM      2  C8  UNK     1      39.171  12.831  -0.562  1.00  0.00     0.085 A 
ATOM      3  C9  UNK     1      41.383  12.346  -1.402  1.00  0.00     0.085 A 
ATOM      4  C10 UNK     1      39.282  11.775   0.342  1.00  0.00     0.074 A 
ATOM      5  C11 UNK     1      41.495  11.290  -0.499  1.00  0.00     0.074 A 
ATOM      6  C14 UNK     1      40.444  11.004   0.374  1.00  0.00     0.071 A 
ENDROOT
BRANCH   1   7
ATOM      7  C4  UNK     1      40.104  14.222  -2.379  1.00  0.00     0.165 C 
ATOM      8  O1  UNK     1      39.194  14.234  -3.231  1.00  0.00    -0.292 OA
BRANCH   7   9
ATOM      9  C2  UNK     1      41.111  15.382  -2.329  1.00  0.00     0.088 C 
BRANCH   9  10
ATOM     10  C1  UNK     1      40.576  16.675  -2.949  1.00  0.00     0.046 C 
BRANCH  10  11
ATOM     11  C3  UNK     1      39.891  17.542  -1.924  1.00  0.00    -0.058 A 
ATOM     12  C6  UNK     1      39.815  18.911  -2.131  1.00  0.00     0.010 A 
ATOM     13  C12 UNK     1      39.181  19.714  -1.183  1.00  0.00     0.037 A 
ATOM     14  C15 UNK     1      38.631  19.138  -0.037  1.00  0.00     0.065 A 
ATOM     15  C13 UNK     1      38.715  17.759   0.160  1.00  0.00     0.037 A 
ATOM     16  C7  UNK     1      39.349  16.957  -0.789  1.00  0.00     0.010 A 
BRANCH  14  17
ATOM     17  O5  UNK     1      38.012  19.921   0.887  1.00  0.00    -0.361 OA
ATOM     18  H14 UNK     1      38.227  19.591   1.776  1.00  0.00     0.217 HD
ENDBRANCH  14  17
ENDBRANCH  10  11
ENDBRANCH   9  10
ENDBRANCH   7   9
ENDBRANCH   1   7
BRANCH   2  19
ATOM     19  O2  UNK     1      38.026  13.572  -0.576  1.00  0.00    -0.360 OA
ATOM     20  H11 UNK     1      37.879  13.958  -1.455  1.00  0.00     0.217 HD
ENDBRANCH   2  19
BRANCH   3  21
ATOM     21  O3  UNK     1      42.422  12.608  -2.246  1.00  0.00    -0.360 OA
ATOM     22  H12 UNK     1      42.810  13.469  -2.015  1.00  0.00     0.217 HD
ENDBRANCH   3  21
BRANCH   6  23
ATOM     23  O4  UNK     1      40.554   9.974   1.256  1.00  0.00    -0.361 OA
ATOM     24  H13 UNK     1      41.216  10.205   1.930  1.00  0.00     0.217 HD
ENDBRANCH   6  23
TORSDOF 8
ENDMDL
MODEL 2
REMARK VINA RESULT:      -8.3      0.011      1.863
REMARK  8 active torsions:
REMARK  status: ('A' for Active; 'I' for Inactive)
REMARK    1  A    between atoms: O2_2  and  C8_13 
REMARK    2  A    between atoms: O3_3  and  C9_14 
REMARK    3  A    between atoms: O4_4  and  C14_19 
REMARK    4  A    between atoms: O5_5  and  C15_20 
REMARK    5  A    between atoms: C1_6  and  C2_7 
REMARK    6  A    between atoms: C1_6  and  C3_8 
REMARK    7  A    between atoms: C2_7  and  C4_9 
REMARK    8  A    between atoms: C4_9  and  C5_10 
ROOT
ATOM      1  C5  UNK     1      40.221  13.119  -1.439  1.00  0.00     0.076 A 
ATOM      2  C8  UNK     1      41.386  12.352  -1.410  1.00  0.00     0.085 A 
ATOM      3  C9  UNK     1      39.174  12.829  -0.565  1.00  0.00     0.085 A 
ATOM      4  C10 UNK     1      41.502  11.294  -0.509  1.00  0.00     0.074 A 
ATOM      5  C11 UNK     1      39.289  11.772   0.337  1.00  0.00     0.074 A 
ATOM      6  C14 UNK     1      40.454  11.004   0.365  1.00  0.00     0.071 A 
ENDROOT
BRANCH   1   7
ATOM      7  C4  UNK     1      40.101  14.226  -2.382  1.00  0.00     0.165 C 
ATOM      8  O1  UNK     1      39.191  14.239  -3.233  1.00  0.00    -0.292 OA
BRANCH   7   9
ATOM      9  C2  UNK     1      41.108  15.387  -2.330  1.00  0.00     0.088 C 
BRANCH   9  10
ATOM     10  C1  UNK     1      40.570  16.681  -2.946  1.00  0.00     0.046 C 
BRANCH  10  11
ATOM     11  C3  UNK     1      39.889  17.546  -1.917  1.00  0.00    -0.058 A 
ATOM     12  C6  UNK     1      39.812  18.915  -2.121  1.00  0.00     0.010 A 
ATOM     13  C12 UNK     1      39.181  19.716  -1.169  1.00  0.00     0.037 A 
ATOM     14  C15 UNK     1      38.636  19.138  -0.022  1.00  0.00     0.065 A 
ATOM     15  C13 UNK     1      38.721  17.759   0.172  1.00  0.00     0.037 A 
ATOM     16  C7  UNK     1      39.351  16.959  -0.781  1.00  0.00     0.010 A 
BRANCH  14  17
ATOM     17  O5  UNK     1      38.020  19.919   0.906  1.00  0.00    -0.361 OA
ATOM     18  H14 UNK     1      37.808  20.779   0.505  1.00  0.00     0.217 HD
ENDBRANCH  14  17
ENDBRANCH  10  11
ENDBRANCH   9  10
ENDBRANCH   7   9
ENDBRANCH   1   7
BRANCH   2  19
ATOM     19  O2  UNK     1      42.422  12.618  -2.255  1.00  0.00    -0.360 OA
ATOM     20  H11 UNK     1      42.866  13.443  -2.002  1.00  0.00     0.217 HD
ENDBRANCH   2  19
BRANCH   3  21
ATOM     21  O3  UNK     1      38.027  13.568  -0.576  1.00  0.00    -0.360 OA
ATOM     22  H12 UNK     1      38.200  14.429  -0.159  1.00  0.00     0.217 HD
ENDBRANCH   3  21
BRANCH   6  23
ATOM     23  O4  UNK     1      40.566   9.971   1.244  1.00  0.00    -0.361 OA
ATOM     24  H13 UNK     1      41.006  10.291   2.051  1.00  0.00     0.217 HD
ENDBRANCH   6  23
TORSDOF 8
ENDMDL
MODEL 3
REMARK VINA RESULT:      -8.3      1.461      6.318
REMARK  8 active torsions:
REMARK  status: ('A' for Active; 'I' for Inactive)
REMARK    1  A    between atoms: O2_2  and  C8_13 
REMARK    2  A    between atoms: O3_3  and  C9_14 
REMARK    3  A    between atoms: O4_4  and  C14_19 
REMARK    4  A    between atoms: O5_5  and  C15_20 
REMARK    5  A    between atoms: C1_6  and  C2_7 
REMARK    6  A    between atoms: C1_6  and  C3_8 
REMARK    7  A    between atoms: C2_7  and  C4_9 
REMARK    8  A    between atoms: C4_9  and  C5_10 
ROOT
ATOM      1  C5  UNK     1      39.863  16.761  -2.149  1.00  0.00     0.076 A 
ATOM      2  C8  UNK     1      39.180  16.885  -0.940  1.00  0.00     0.085 A 
ATOM      3  C9  UNK     1      40.208  17.901  -2.875  1.00  0.00     0.085 A 
ATOM      4  C10 UNK     1      38.842  18.148  -0.456  1.00  0.00     0.074 A 
ATOM      5  C11 UNK     1      39.870  19.164  -2.392  1.00  0.00     0.074 A 
ATOM      6  C14 UNK     1      39.186  19.289  -1.182  1.00  0.00     0.071 A 
ENDROOT
BRANCH   1   7
ATOM      7  C4  UNK     1      40.217  15.439  -2.654  1.00  0.00     0.165 C 
ATOM      8  O1  UNK     1      39.353  14.706  -3.175  1.00  0.00    -0.292 OA
BRANCH   7   9
ATOM      9  C2  UNK     1      41.667  14.940  -2.541  1.00  0.00     0.088 C 
BRANCH   9  10
ATOM     10  C1  UNK     1      42.113  14.701  -1.097  1.00  0.00     0.046 C 
BRANCH  10  11
ATOM     11  C3  UNK     1      41.578  13.399  -0.557  1.00  0.00    -0.058 A 
ATOM     12  C6  UNK     1      40.978  13.375   0.692  1.00  0.00     0.010 A 
ATOM     13  C12 UNK     1      40.482  12.171   1.192  1.00  0.00     0.037 A 
ATOM     14  C15 UNK     1      40.593  11.003   0.436  1.00  0.00     0.065 A 
ATOM     15  C13 UNK     1      41.200  11.041  -0.820  1.00  0.00     0.037 A 
ATOM     16  C7  UNK     1      41.694  12.246  -1.319  1.00  0.00     0.010 A 
BRANCH  14  17
ATOM     17  O5  UNK     1      40.108   9.829   0.922  1.00  0.00    -0.361 OA
ATOM     18  H14 UNK     1      39.600   9.384   0.224  1.00  0.00     0.217 HD
ENDBRANCH  14  17
ENDBRANCH  10  11
ENDBRANCH   9  10
ENDBRANCH   7   9
ENDBRANCH   1   7
BRANCH   2  19
ATOM     19  O2  UNK     1      38.833  15.784  -0.214  1.00  0.00    -0.360 OA
ATOM     20  H11 UNK     1      39.235  14.985  -0.590  1.00  0.00     0.217 HD
ENDBRANCH   2  19
BRANCH   3  21
ATOM     21  O3  UNK     1      40.876  17.802  -4.060  1.00  0.00    -0.360 OA
ATOM     22  H12 UNK     1      40.240  17.601  -4.768  1.00  0.00     0.217 HD
ENDBRANCH   3  21
BRANCH   6  23
ATOM     23  O4  UNK     1      38.856  20.522  -0.710  1.00  0.00    -0.361 OA
ATOM     24  H13 UNK     1      39.381  21.190  -1.183  1.00  0.00     0.217 HD
ENDBRANCH   6  23
TORSDOF 8
ENDMDL
MODEL 4
REMARK VINA RESULT:      -8.2      1.459      6.473
REMARK  8 active torsions:
REMARK  status: ('A' for Active; 'I' for Inactive)
REMARK    1  A    between atoms: O2_2  and  C8_13 
REMARK    2  A    between atoms: O3_3  and  C9_14 
REMARK    3  A    between atoms: O4_4  and  C14_19 
REMARK    4  A    between atoms: O5_5  and  C15_20 
REMARK    5  A    between atoms: C1_6  and  C2_7 
REMARK    6  A    between atoms: C1_6  and  C3_8 
REMARK    7  A    between atoms: C2_7  and  C4_9 
REMARK    8  A    between atoms: C4_9  and  C5_10 
ROOT
ATOM      1  C5  UNK     1      39.870  16.751  -2.134  1.00  0.00     0.076 A 
ATOM      2  C8  UNK     1      40.207  17.892  -2.863  1.00  0.00     0.085 A 
ATOM      3  C9  UNK     1      39.191  16.874  -0.922  1.00  0.00     0.085 A 
ATOM      4  C10 UNK     1      39.864  19.155  -2.380  1.00  0.00     0.074 A 
ATOM      5  C11 UNK     1      38.848  18.136  -0.439  1.00  0.00     0.074 A 
ATOM      6  C14 UNK     1      39.185  19.278  -1.168  1.00  0.00     0.071 A 
ENDROOT
BRANCH   1   7
ATOM      7  C4  UNK     1      40.228  15.431  -2.640  1.00  0.00     0.165 C 
ATOM      8  O1  UNK     1      39.367  14.694  -3.158  1.00  0.00    -0.292 OA
BRANCH   7   9
ATOM      9  C2  UNK     1      41.682  14.940  -2.533  1.00  0.00     0.088 C 
BRANCH   9  10
ATOM     10  C1  UNK     1      42.131  14.692  -1.092  1.00  0.00     0.046 C 
BRANCH  10  11
ATOM     11  C3  UNK     1      41.590  13.392  -0.555  1.00  0.00    -0.058 A 
ATOM     12  C6  UNK     1      40.987  13.369   0.693  1.00  0.00     0.010 A 
ATOM     13  C12 UNK     1      40.485  12.165   1.190  1.00  0.00     0.037 A 
ATOM     14  C15 UNK     1      40.594  10.999   0.433  1.00  0.00     0.065 A 
ATOM     15  C13 UNK     1      41.203  11.036  -0.822  1.00  0.00     0.037 A 
ATOM     16  C7  UNK     1      41.704  12.239  -1.318  1.00  0.00     0.010 A 
BRANCH  14  17
ATOM     17  O5  UNK     1      40.104   9.826   0.917  1.00  0.00    -0.361 OA
ATOM     18  H14 UNK     1      40.793   9.144   0.849  1.00  0.00     0.217 HD
ENDBRANCH  14  17
ENDBRANCH  10  11
ENDBRANCH   9  10
ENDBRANCH   7   9
ENDBRANCH   1   7
BRANCH   2  19
ATOM     19  O2  UNK     1      40.870  17.795  -4.050  1.00  0.00    -0.360 OA
ATOM     20  H11 UNK     1      40.505  17.076  -4.589  1.00  0.00     0.217 HD
ENDBRANCH   2  19
BRANCH   3  21
ATOM     21  O3  UNK     1      38.852  15.772  -0.194  1.00  0.00    -0.360 OA
ATOM     22  H12 UNK     1      39.638  15.448   0.277  1.00  0.00     0.217 HD
ENDBRANCH   3  21
BRANCH   6  23
ATOM     23  O4  UNK     1      38.851  20.509  -0.696  1.00  0.00    -0.361 OA
ATOM     24  H13 UNK     1      37.919  20.498  -0.418  1.00  0.00     0.217 HD
ENDBRANCH   6  23
TORSDOF 8
ENDMDL
MODEL 5
REMARK VINA RESULT:      -7.1      1.691      6.836
REMARK  8 active torsions:
REMARK  status: ('A' for Active; 'I' for Inactive)
REMARK    1  A    between atoms: O2_2  and  C8_13 
REMARK    2  A    between atoms: O3_3  and  C9_14 
REMARK    3  A    between atoms: O4_4  and  C14_19 
REMARK    4  A    between atoms: O5_5  and  C15_20 
REMARK    5  A    between atoms: C1_6  and  C2_7 
REMARK    6  A    between atoms: C1_6  and  C3_8 
REMARK    7  A    between atoms: C2_7  and  C4_9 
REMARK    8  A    between atoms: C4_9  and  C5_10 
ROOT
ATOM      1  C5  UNK     1      39.574  18.484  -1.637  1.00  0.00     0.076 A 
ATOM      2  C8  UNK     1      39.915  19.835  -1.691  1.00  0.00     0.085 A 
ATOM      3  C9  UNK     1      38.779  18.007  -0.595  1.00  0.00     0.085 A 
ATOM      4  C10 UNK     1      39.463  20.709  -0.702  1.00  0.00     0.074 A 
ATOM      5  C11 UNK     1      38.327  18.880   0.394  1.00  0.00     0.074 A 
ATOM      6  C14 UNK     1      38.669  20.232   0.340  1.00  0.00     0.071 A 
ENDROOT
BRANCH   1   7
ATOM      7  C4  UNK     1      40.047  17.571  -2.672  1.00  0.00     0.165 C 
ATOM      8  O1  UNK     1      39.926  17.861  -3.878  1.00  0.00    -0.292 OA
BRANCH   7   9
ATOM      9  C2  UNK     1      40.699  16.236  -2.275  1.00  0.00     0.088 C 
BRANCH   9  10
ATOM     10  C1  UNK     1      39.889  15.014  -2.712  1.00  0.00     0.046 C 
BRANCH  10  11
ATOM     11  C3  UNK     1      40.191  13.810  -1.858  1.00  0.00    -0.058 A 
ATOM     12  C6  UNK     1      39.225  13.334  -0.985  1.00  0.00     0.010 A 
ATOM     13  C12 UNK     1      39.505  12.219  -0.194  1.00  0.00     0.037 A 
ATOM     14  C15 UNK     1      40.750  11.594  -0.285  1.00  0.00     0.065 A 
ATOM     15  C13 UNK     1      41.714  12.085  -1.167  1.00  0.00     0.037 A 
ATOM     16  C7  UNK     1      41.433  13.199  -1.957  1.00  0.00     0.010 A 
BRANCH  14  17
ATOM     17  O5  UNK     1      41.023  10.507   0.485  1.00  0.00    -0.361 OA
ATOM     18  H14 UNK     1      40.428   9.781   0.229  1.00  0.00     0.217 HD
ENDBRANCH  14  17
ENDBRANCH  10  11
ENDBRANCH   9  10
ENDBRANCH   7   9
ENDBRANCH   1   7
BRANCH   2  19
ATOM     19  O2  UNK     1      40.690  20.323  -2.701  1.00  0.00    -0.360 OA
ATOM     20  H11 UNK     1      40.181  20.931  -3.261  1.00  0.00     0.217 HD
ENDBRANCH   2  19
BRANCH   3  21
ATOM     21  O3  UNK     1      38.433  16.690  -0.524  1.00  0.00    -0.360 OA
ATOM     22  H12 UNK     1      39.234  16.145  -0.612  1.00  0.00     0.217 HD
ENDBRANCH   3  21
BRANCH   6  23
ATOM     23  O4  UNK     1      38.228  21.084   1.305  1.00  0.00    -0.361 OA
ATOM     24  H13 UNK     1      37.677  20.588   1.936  1.00  0.00     0.217 HD
ENDBRANCH   6  23
TORSDOF 8
ENDMDL
MODEL 6
REMARK VINA RESULT:      -6.9      1.878      6.606
REMARK  8 active torsions:
REMARK  status: ('A' for Active; 'I' for Inactive)
REMARK    1  A    between atoms: O2_2  and  C8_13 
REMARK    2  A    between atoms: O3_3  and  C9_14 
REMARK    3  A    between atoms: O4_4  and  C14_19 
REMARK    4  A    between atoms: O5_5  and  C15_20 
REMARK    5  A    between atoms: C1_6  and  C2_7 
REMARK    6  A    between atoms: C1_6  and  C3_8 
REMARK    7  A    between atoms: C2_7  and  C4_9 
REMARK    8  A    between atoms: C4_9  and  C5_10 
ROOT
ATOM      1  C5  UNK     1      39.641  18.688  -1.766  1.00  0.00     0.076 A 
ATOM      2  C8  UNK     1      38.862  18.150  -0.742  1.00  0.00     0.085 A 
ATOM      3  C9  UNK     1      39.965  20.045  -1.756  1.00  0.00     0.085 A 
ATOM      4  C10 UNK     1      38.407  18.968   0.292  1.00  0.00     0.074 A 
ATOM      5  C11 UNK     1      39.511  20.863  -0.723  1.00  0.00     0.074 A 
ATOM      6  C14 UNK     1      38.731  20.325   0.302  1.00  0.00     0.071 A 
ENDROOT
BRANCH   1   7
ATOM      7  C4  UNK     1      40.116  17.831  -2.847  1.00  0.00     0.165 C 
ATOM      8  O1  UNK     1      40.708  18.318  -3.830  1.00  0.00    -0.292 OA
BRANCH   7   9
ATOM      9  C2  UNK     1      39.884  16.312  -2.777  1.00  0.00     0.088 C 
BRANCH   9  10
ATOM     10  C1  UNK     1      41.148  15.524  -2.427  1.00  0.00     0.046 C 
BRANCH  10  11
ATOM     11  C3  UNK     1      40.841  14.344  -1.540  1.00  0.00    -0.058 A 
ATOM     12  C6  UNK     1      41.842  13.812  -0.743  1.00  0.00     0.010 A 
ATOM     13  C12 UNK     1      41.558  12.721   0.079  1.00  0.00     0.037 A 
ATOM     14  C15 UNK     1      40.274  12.173   0.091  1.00  0.00     0.065 A 
ATOM     15  C13 UNK     1      39.276  12.718  -0.716  1.00  0.00     0.037 A 
ATOM     16  C7  UNK     1      39.560  13.810  -1.536  1.00  0.00     0.010 A 
BRANCH  14  17
ATOM     17  O5  UNK     1      39.997  11.110   0.893  1.00  0.00    -0.361 OA
ATOM     18  H14 UNK     1      40.827  10.654   1.111  1.00  0.00     0.217 HD
ENDBRANCH  14  17
ENDBRANCH  10  11
ENDBRANCH   9  10
ENDBRANCH   7   9
ENDBRANCH   1   7
BRANCH   2  19
ATOM     19  O2  UNK     1      38.534  16.827  -0.731  1.00  0.00    -0.360 OA
ATOM     20  H11 UNK     1      38.899  16.390   0.055  1.00  0.00     0.217 HD
ENDBRANCH   2  19
BRANCH   3  21
ATOM     21  O3  UNK     1      40.725  20.591  -2.748  1.00  0.00    -0.360 OA
ATOM     22  H12 UNK     1      41.470  19.995  -2.942  1.00  0.00     0.217 HD
ENDBRANCH   3  21
BRANCH   6  23
ATOM     23  O4  UNK     1      38.287  21.124   1.310  1.00  0.00    -0.361 OA
ATOM     24  H13 UNK     1      38.477  22.051   1.084  1.00  0.00     0.217 HD
ENDBRANCH   6  23
TORSDOF 8
ENDMDL
MODEL 7
REMARK VINA RESULT:      -6.3      1.476      2.527
REMARK  8 active torsions:
REMARK  status: ('A' for Active; 'I' for Inactive)
REMARK    1  A    between atoms: O2_2  and  C8_13 
REMARK    2  A    between atoms: O3_3  and  C9_14 
REMARK    3  A    between atoms: O4_4  and  C14_19 
REMARK    4  A    between atoms: O5_5  and  C15_20 
REMARK    5  A    between atoms: C1_6  and  C2_7 
REMARK    6  A    between atoms: C1_6  and  C3_8 
REMARK    7  A    between atoms: C2_7  and  C4_9 
REMARK    8  A    between atoms: C4_9  and  C5_10 
ROOT
ATOM      1  C5  UNK     1      39.992  13.445  -0.901  1.00  0.00     0.076 A 
ATOM      2  C8  UNK     1      41.296  13.726  -0.492  1.00  0.00     0.085 A 
ATOM      3  C9  UNK     1      39.286  12.398  -0.308  1.00  0.00     0.085 A 
ATOM      4  C10 UNK     1      41.893  12.962   0.510  1.00  0.00     0.074 A 
ATOM      5  C11 UNK     1      39.882  11.634   0.694  1.00  0.00     0.074 A 
ATOM      6  C14 UNK     1      41.187  11.915   1.103  1.00  0.00     0.071 A 
ENDROOT
BRANCH   1   7
ATOM      7  C4  UNK     1      39.369  14.245  -1.949  1.00  0.00     0.165 C 
ATOM      8  O1  UNK     1      39.867  14.297  -3.090  1.00  0.00    -0.292 OA
BRANCH   7   9
ATOM      9  C2  UNK     1      38.085  15.037  -1.645  1.00  0.00     0.088 C 
BRANCH   9  10
ATOM     10  C1  UNK     1      38.191  15.897  -0.384  1.00  0.00     0.046 C 
BRANCH  10  11
ATOM     11  C3  UNK     1      38.660  17.294  -0.701  1.00  0.00    -0.058 A 
ATOM     12  C6  UNK     1      38.261  18.347   0.107  1.00  0.00     0.010 A 
ATOM     13  C12 UNK     1      38.696  19.640  -0.186  1.00  0.00     0.037 A 
ATOM     14  C15 UNK     1      39.524  19.865  -1.286  1.00  0.00     0.065 A 
ATOM     15  C13 UNK     1      39.919  18.796  -2.092  1.00  0.00     0.037 A 
ATOM     16  C7  UNK     1      39.484  17.504  -1.798  1.00  0.00     0.010 A 
BRANCH  14  17
ATOM     17  O5  UNK     1      39.950  21.125  -1.571  1.00  0.00    -0.361 OA
ATOM     18  H14 UNK     1      39.178  21.713  -1.628  1.00  0.00     0.217 HD
ENDBRANCH  14  17
ENDBRANCH  10  11
ENDBRANCH   9  10
ENDBRANCH   7   9
ENDBRANCH   1   7
BRANCH   2  19
ATOM     19  O2  UNK     1      42.004  14.744  -1.058  1.00  0.00    -0.360 OA
ATOM     20  H11 UNK     1      42.900  14.452  -1.289  1.00  0.00     0.217 HD
ENDBRANCH   2  19
BRANCH   3  21
ATOM     21  O3  UNK     1      38.011  12.106  -0.693  1.00  0.00    -0.360 OA
ATOM     22  H12 UNK     1      37.919  11.142  -0.785  1.00  0.00     0.217 HD
ENDBRANCH   3  21
BRANCH   6  23
ATOM     23  O4  UNK     1      41.769  11.169   2.081  1.00  0.00    -0.361 OA
ATOM     24  H13 UNK     1      41.267  11.284   2.906  1.00  0.00     0.217 HD
ENDBRANCH   6  23
TORSDOF 8
ENDMDL
MODEL 8
REMARK VINA RESULT:      -6.2      9.183     12.055
REMARK  8 active torsions:
REMARK  status: ('A' for Active; 'I' for Inactive)
REMARK    1  A    between atoms: O2_2  and  C8_13 
REMARK    2  A    between atoms: O3_3  and  C9_14 
REMARK    3  A    between atoms: O4_4  and  C14_19 
REMARK    4  A    between atoms: O5_5  and  C15_20 
REMARK    5  A    between atoms: C1_6  and  C2_7 
REMARK    6  A    between atoms: C1_6  and  C3_8 
REMARK    7  A    between atoms: C2_7  and  C4_9 
REMARK    8  A    between atoms: C4_9  and  C5_10 
ROOT
ATOM      1  C5  UNK     1      49.140  12.755  -5.921  1.00  0.00     0.076 A 
ATOM      2  C8  UNK     1      48.025  12.549  -5.108  1.00  0.00     0.085 A 
ATOM      3  C9  UNK     1      49.774  13.998  -5.932  1.00  0.00     0.085 A 
ATOM      4  C10 UNK     1      47.544  13.585  -4.308  1.00  0.00     0.074 A 
ATOM      5  C11 UNK     1      49.293  15.034  -5.132  1.00  0.00     0.074 A 
ATOM      6  C14 UNK     1      48.178  14.827  -4.319  1.00  0.00     0.071 A 
ENDROOT
BRANCH   1   7
ATOM      7  C4  UNK     1      49.643  11.671  -6.757  1.00  0.00     0.165 C 
ATOM      8  O1  UNK     1      49.077  11.381  -7.829  1.00  0.00    -0.292 OA
BRANCH   7   9
ATOM      9  C2  UNK     1      50.881  10.874  -6.313  1.00  0.00     0.088 C 
BRANCH   9  10
ATOM     10  C1  UNK     1      50.590   9.889  -5.179  1.00  0.00     0.046 C 
BRANCH  10  11
ATOM     11  C3  UNK     1      50.981  10.453  -3.837  1.00  0.00    -0.058 A 
ATOM     12  C6  UNK     1      52.275  10.907  -3.639  1.00  0.00     0.010 A 
ATOM     13  C12 UNK     1      52.637  11.430  -2.397  1.00  0.00     0.037 A 
ATOM     14  C15 UNK     1      51.697  11.491  -1.366  1.00  0.00     0.065 A 
ATOM     15  C13 UNK     1      50.398  11.031  -1.579  1.00  0.00     0.037 A 
ATOM     16  C7  UNK     1      50.037  10.509  -2.821  1.00  0.00     0.010 A 
BRANCH  14  17
ATOM     17  O5  UNK     1      52.049  12.002  -0.156  1.00  0.00    -0.361 OA
ATOM     18  H14 UNK     1      52.674  12.734  -0.292  1.00  0.00     0.217 HD
ENDBRANCH  14  17
ENDBRANCH  10  11
ENDBRANCH   9  10
ENDBRANCH   7   9
ENDBRANCH   1   7
BRANCH   2  19
ATOM     19  O2  UNK     1      47.391  11.342  -5.081  1.00  0.00    -0.360 OA
ATOM     20  H11 UNK     1      46.867  11.249  -4.269  1.00  0.00     0.217 HD
ENDBRANCH   2  19
BRANCH   3  21
ATOM     21  O3  UNK     1      50.865  14.220  -6.719  1.00  0.00    -0.360 OA
ATOM     22  H12 UNK     1      51.308  15.035  -6.425  1.00  0.00     0.217 HD
ENDBRANCH   3  21
BRANCH   6  23
ATOM     23  O4  UNK     1      47.708  15.838  -3.539  1.00  0.00    -0.361 OA
ATOM     24  H13 UNK     1      47.077  15.473  -2.896  1.00  0.00     0.217 HD
ENDBRANCH   6  23
TORSDOF 8
ENDMDL
MODEL 9
REMARK VINA RESULT:      -6.2      9.183     12.079
REMARK  8 active torsions:
REMARK  status: ('A' for Active; 'I' for Inactive)
REMARK    1  A    between atoms: O2_2  and  C8_13 
REMARK    2  A    between atoms: O3_3  and  C9_14 
REMARK    3  A    between atoms: O4_4  and  C14_19 
REMARK    4  A    between atoms: O5_5  and  C15_20 
REMARK    5  A    between atoms: C1_6  and  C2_7 
REMARK    6  A    between atoms: C1_6  and  C3_8 
REMARK    7  A    between atoms: C2_7  and  C4_9 
REMARK    8  A    between atoms: C4_9  and  C5_10 
ROOT
ATOM      1  C5  UNK     1      49.139  12.755  -5.926  1.00  0.00     0.076 A 
ATOM      2  C8  UNK     1      48.023  12.549  -5.114  1.00  0.00     0.085 A 
ATOM      3  C9  UNK     1      49.773  13.997  -5.937  1.00  0.00     0.085 A 
ATOM      4  C10 UNK     1      47.543  13.586  -4.314  1.00  0.00     0.074 A 
ATOM      5  C11 UNK     1      49.294  15.033  -5.137  1.00  0.00     0.074 A 
ATOM      6  C14 UNK     1      48.177  14.828  -4.325  1.00  0.00     0.071 A 
ENDROOT
BRANCH   1   7
ATOM      7  C4  UNK     1      49.641  11.670  -6.762  1.00  0.00     0.165 C 
ATOM      8  O1  UNK     1      49.075  11.380  -7.833  1.00  0.00    -0.292 OA
BRANCH   7   9
ATOM      9  C2  UNK     1      50.879  10.873  -6.318  1.00  0.00     0.088 C 
BRANCH   9  10
ATOM     10  C1  UNK     1      50.588   9.888  -5.183  1.00  0.00     0.046 C 
BRANCH  10  11
ATOM     11  C3  UNK     1      50.977  10.453  -3.841  1.00  0.00    -0.058 A 
ATOM     12  C6  UNK     1      50.034  10.512  -2.827  1.00  0.00     0.010 A 
ATOM     13  C12 UNK     1      50.395  11.035  -1.584  1.00  0.00     0.037 A 
ATOM     14  C15 UNK     1      51.695  11.495  -1.372  1.00  0.00     0.065 A 
ATOM     15  C13 UNK     1      52.634  11.431  -2.402  1.00  0.00     0.037 A 
ATOM     16  C7  UNK     1      52.273  10.908  -3.643  1.00  0.00     0.010 A 
BRANCH  14  17
ATOM     17  O5  UNK     1      52.047  12.004  -0.161  1.00  0.00    -0.361 OA
ATOM     18  H14 UNK     1      51.560  12.832  -0.013  1.00  0.00     0.217 HD
ENDBRANCH  14  17
ENDBRANCH  10  11
ENDBRANCH   9  10
ENDBRANCH   7   9
ENDBRANCH   1   7
BRANCH   2  19
ATOM     19  O2  UNK     1      47.388  11.344  -5.087  1.00  0.00    -0.360 OA
ATOM     20  H11 UNK     1      47.050  11.115  -5.967  1.00  0.00     0.217 HD
ENDBRANCH   2  19
BRANCH   3  21
ATOM     21  O3  UNK     1      50.866  14.218  -6.723  1.00  0.00    -0.360 OA
ATOM     22  H12 UNK     1      50.799  13.668  -7.523  1.00  0.00     0.217 HD
ENDBRANCH   3  21
BRANCH   6  23
ATOM     23  O4  UNK     1      47.709  15.839  -3.545  1.00  0.00    -0.361 OA
ATOM     24  H13 UNK     1      46.993  16.297  -4.019  1.00  0.00     0.217 HD
ENDBRANCH   6  23
TORSDOF 8
ENDMDL
MODEL 10
REMARK VINA RESULT:      -6.2      9.182     12.149
REMARK  8 active torsions:
REMARK  status: ('A' for Active; 'I' for Inactive)
REMARK    1  A    between atoms: O2_2  and  C8_13 
REMARK    2  A    between atoms: O3_3  and  C9_14 
REMARK    3  A    between atoms: O4_4  and  C14_19 
REMARK    4  A    between atoms: O5_5  and  C15_20 
REMARK    5  A    between atoms: C1_6  and  C2_7 
REMARK    6  A    between atoms: C1_6  and  C3_8 
REMARK    7  A    between atoms: C2_7  and  C4_9 
REMARK    8  A    between atoms: C4_9  and  C5_10 
ROOT
ATOM      1  C5  UNK     1      49.137  12.756  -5.919  1.00  0.00     0.076 A 
ATOM      2  C8  UNK     1      49.770  13.998  -5.934  1.00  0.00     0.085 A 
ATOM      3  C9  UNK     1      48.023  12.551  -5.105  1.00  0.00     0.085 A 
ATOM      4  C10 UNK     1      49.291  15.035  -5.134  1.00  0.00     0.074 A 
ATOM      5  C11 UNK     1      47.543  13.587  -4.305  1.00  0.00     0.074 A 
ATOM      6  C14 UNK     1      48.177  14.830  -4.320  1.00  0.00     0.071 A 
ENDROOT
BRANCH   1   7
ATOM      7  C4  UNK     1      49.639  11.672  -6.756  1.00  0.00     0.165 C 
ATOM      8  O1  UNK     1      49.072  11.382  -7.828  1.00  0.00    -0.292 OA
BRANCH   7   9
ATOM      9  C2  UNK     1      50.878  10.875  -6.314  1.00  0.00     0.088 C 
BRANCH   9  10
ATOM     10  C1  UNK     1      50.589   9.890  -5.180  1.00  0.00     0.046 C 
BRANCH  10  11
ATOM     11  C3  UNK     1      50.980  10.455  -3.838  1.00  0.00    -0.058 A 
ATOM     12  C6  UNK     1      52.275  10.908  -3.641  1.00  0.00     0.010 A 
ATOM     13  C12 UNK     1      52.637  11.432  -2.399  1.00  0.00     0.037 A 
ATOM     14  C15 UNK     1      51.698  11.494  -1.368  1.00  0.00     0.065 A 
ATOM     15  C13 UNK     1      50.398  11.034  -1.580  1.00  0.00     0.037 A 
ATOM     16  C7  UNK     1      50.037  10.511  -2.822  1.00  0.00     0.010 A 
BRANCH  14  17
ATOM     17  O5  UNK     1      52.050  12.005  -0.158  1.00  0.00    -0.361 OA
ATOM     18  H14 UNK     1      52.895  11.611   0.118  1.00  0.00     0.217 HD
ENDBRANCH  14  17
ENDBRANCH  10  11
ENDBRANCH   9  10
ENDBRANCH   7   9
ENDBRANCH   1   7
BRANCH   2  19
ATOM     19  O2  UNK     1      50.860  14.221  -6.722  1.00  0.00    -0.360 OA
ATOM     20  H11 UNK     1      50.729  15.009  -7.273  1.00  0.00     0.217 HD
ENDBRANCH   2  19
BRANCH   3  21
ATOM     21  O3  UNK     1      47.388  11.344  -5.077  1.00  0.00    -0.360 OA
ATOM     22  H12 UNK     1      48.019  10.647  -5.328  1.00  0.00     0.217 HD
ENDBRANCH   3  21
BRANCH   6  23
ATOM     23  O4  UNK     1      47.709  15.841  -3.539  1.00  0.00    -0.361 OA
ATOM     24  H13 UNK     1      47.722  16.668  -4.052  1.00  0.00     0.217 HD
ENDBRANCH   6  23
TORSDOF 8
ENDMDL
MODEL 11
REMARK VINA RESULT:      -6.2      9.189     12.179
REMARK  8 active torsions:
REMARK  status: ('A' for Active; 'I' for Inactive)
REMARK    1  A    between atoms: O2_2  and  C8_13 
REMARK    2  A    between atoms: O3_3  and  C9_14 
REMARK    3  A    between atoms: O4_4  and  C14_19 
REMARK    4  A    between atoms: O5_5  and  C15_20 
REMARK    5  A    between atoms: C1_6  and  C2_7 
REMARK    6  A    between atoms: C1_6  and  C3_8 
REMARK    7  A    between atoms: C2_7  and  C4_9 
REMARK    8  A    between atoms: C4_9  and  C5_10 
ROOT
ATOM      1  C5  UNK     1      49.138  12.754  -5.930  1.00  0.00     0.076 A 
ATOM      2  C8  UNK     1      49.773  13.996  -5.943  1.00  0.00     0.085 A 
ATOM      3  C9  UNK     1      48.024  12.549  -5.116  1.00  0.00     0.085 A 
ATOM      4  C10 UNK     1      49.295  15.033  -5.141  1.00  0.00     0.074 A 
ATOM      5  C11 UNK     1      47.545  13.585  -4.314  1.00  0.00     0.074 A 
ATOM      6  C14 UNK     1      48.181  14.828  -4.327  1.00  0.00     0.071 A 
ENDROOT
BRANCH   1   7
ATOM      7  C4  UNK     1      49.639  11.672  -6.769  1.00  0.00     0.165 C 
ATOM      8  O1  UNK     1      49.069  11.381  -7.839  1.00  0.00    -0.292 OA
BRANCH   7   9
ATOM      9  C2  UNK     1      50.881  10.877  -6.331  1.00  0.00     0.088 C 
BRANCH   9  10
ATOM     10  C1  UNK     1      50.597   9.889  -5.198  1.00  0.00     0.046 C 
BRANCH  10  11
ATOM     11  C3  UNK     1      50.986  10.454  -3.856  1.00  0.00    -0.058 A 
ATOM     12  C6  UNK     1      50.044  10.510  -2.841  1.00  0.00     0.010 A 
ATOM     13  C12 UNK     1      50.404  11.032  -1.598  1.00  0.00     0.037 A 
ATOM     14  C15 UNK     1      51.704  11.495  -1.387  1.00  0.00     0.065 A 
ATOM     15  C13 UNK     1      52.642  11.433  -2.417  1.00  0.00     0.037 A 
ATOM     16  C7  UNK     1      52.281  10.910  -3.658  1.00  0.00     0.010 A 
BRANCH  14  17
ATOM     17  O5  UNK     1      52.056  12.003  -0.175  1.00  0.00    -0.361 OA
ATOM     18  H14 UNK     1      51.578  11.520   0.521  1.00  0.00     0.217 HD
ENDBRANCH  14  17
ENDBRANCH  10  11
ENDBRANCH   9  10
ENDBRANCH   7   9
ENDBRANCH   1   7
BRANCH   2  19
ATOM     19  O2  UNK     1      50.863  14.219  -6.731  1.00  0.00    -0.360 OA
ATOM     20  H11 UNK     1      51.620  14.505  -6.196  1.00  0.00     0.217 HD
ENDBRANCH   2  19
BRANCH   3  21
ATOM     21  O3  UNK     1      47.388  11.343  -5.089  1.00  0.00    -0.360 OA
ATOM     22  H12 UNK     1      47.716  10.795  -5.823  1.00  0.00     0.217 HD
ENDBRANCH   3  21
BRANCH   6  23
ATOM     23  O4  UNK     1      47.714  15.838  -3.544  1.00  0.00    -0.361 OA
ATOM     24  H13 UNK     1      46.747  15.760  -3.472  1.00  0.00     0.217 HD
ENDBRANCH   6  23
TORSDOF 8
ENDMDL
MODEL 12
REMARK VINA RESULT:      -6.1      9.096     11.618
REMARK  8 active torsions:
REMARK  status: ('A' for Active; 'I' for Inactive)
REMARK    1  A    between atoms: O2_2  and  C8_13 
REMARK    2  A    between atoms: O3_3  and  C9_14 
REMARK    3  A    between atoms: O4_4  and  C14_19 
REMARK    4  A    between atoms: O5_5  and  C15_20 
REMARK    5  A    between atoms: C1_6  and  C2_7 
REMARK    6  A    between atoms: C1_6  and  C3_8 
REMARK    7  A    between atoms: C2_7  and  C4_9 
REMARK    8  A    between atoms: C4_9  and  C5_10 
ROOT
ATOM      1  C5  UNK     1      49.170  12.797  -5.956  1.00  0.00     0.076 A 
ATOM      2  C8  UNK     1      49.736  14.070  -6.012  1.00  0.00     0.085 A 
ATOM      3  C9  UNK     1      48.120  12.538  -5.075  1.00  0.00     0.085 A 
ATOM      4  C10 UNK     1      49.252  15.085  -5.186  1.00  0.00     0.074 A 
ATOM      5  C11 UNK     1      47.636  13.553  -4.249  1.00  0.00     0.074 A 
ATOM      6  C14 UNK     1      48.203  14.827  -4.305  1.00  0.00     0.071 A 
ENDROOT
BRANCH   1   7
ATOM      7  C4  UNK     1      49.676  11.736  -6.820  1.00  0.00     0.165 C 
ATOM      8  O1  UNK     1      50.689  11.086  -6.500  1.00  0.00    -0.292 OA
BRANCH   7   9
ATOM      9  C2  UNK     1      48.956  11.418  -8.141  1.00  0.00     0.088 C 
BRANCH   9  10
ATOM     10  C1  UNK     1      48.320  10.026  -8.163  1.00  0.00     0.046 C 
BRANCH  10  11
ATOM     11  C3  UNK     1      46.847  10.091  -8.476  1.00  0.00    -0.058 A 
ATOM     12  C6  UNK     1      46.238   9.022  -9.114  1.00  0.00     0.010 A 
ATOM     13  C12 UNK     1      44.874   9.082  -9.404  1.00  0.00     0.037 A 
ATOM     14  C15 UNK     1      44.136  10.213  -9.052  1.00  0.00     0.065 A 
ATOM     15  C13 UNK     1      44.761  11.282  -8.409  1.00  0.00     0.037 A 
ATOM     16  C7  UNK     1      46.124  11.221  -8.120  1.00  0.00     0.010 A 
BRANCH  14  17
ATOM     17  O5  UNK     1      42.806  10.271  -9.332  1.00  0.00    -0.361 OA
ATOM     18  H14 UNK     1      42.687  10.261 -10.297  1.00  0.00     0.217 HD
ENDBRANCH  14  17
ENDBRANCH  10  11
ENDBRANCH   9  10
ENDBRANCH   7   9
ENDBRANCH   1   7
BRANCH   2  19
ATOM     19  O2  UNK     1      50.762  14.345  -6.866  1.00  0.00    -0.360 OA
ATOM     20  H11 UNK     1      51.140  15.219  -6.677  1.00  0.00     0.217 HD
ENDBRANCH   2  19
BRANCH   3  21
ATOM     21  O3  UNK     1      47.552  11.301  -5.005  1.00  0.00    -0.360 OA
ATOM     22  H12 UNK     1      47.166  11.177  -4.121  1.00  0.00     0.217 HD
ENDBRANCH   3  21
BRANCH   6  23
ATOM     23  O4  UNK     1      47.731  15.816  -3.499  1.00  0.00    -0.361 OA
ATOM     24  H13 UNK     1      47.575  16.613  -4.035  1.00  0.00     0.217 HD
ENDBRANCH   6  23
TORSDOF 8
ENDMDL
MODEL 13
REMARK VINA RESULT:      -6.1      9.092     11.524
REMARK  8 active torsions:
REMARK  status: ('A' for Active; 'I' for Inactive)
REMARK    1  A    between atoms: O2_2  and  C8_13 
REMARK    2  A    between atoms: O3_3  and  C9_14 
REMARK    3  A    between atoms: O4_4  and  C14_19 
REMARK    4  A    between atoms: O5_5  and  C15_20 
REMARK    5  A    between atoms: C1_6  and  C2_7 
REMARK    6  A    between atoms: C1_6  and  C3_8 
REMARK    7  A    between atoms: C2_7  and  C4_9 
REMARK    8  A    between atoms: C4_9  and  C5_10 
ROOT
ATOM      1  C5  UNK     1      49.166  12.800  -5.958  1.00  0.00     0.076 A 
ATOM      2  C8  UNK     1      48.114  12.541  -5.079  1.00  0.00     0.085 A 
ATOM      3  C9  UNK     1      49.733  14.074  -6.010  1.00  0.00     0.085 A 
ATOM      4  C10 UNK     1      47.629  13.556  -4.254  1.00  0.00     0.074 A 
ATOM      5  C11 UNK     1      49.248  15.088  -5.186  1.00  0.00     0.074 A 
ATOM      6  C14 UNK     1      48.195  14.829  -4.307  1.00  0.00     0.071 A 
ENDROOT
BRANCH   1   7
ATOM      7  C4  UNK     1      49.674  11.739  -6.820  1.00  0.00     0.165 C 
ATOM      8  O1  UNK     1      50.688  11.089  -6.497  1.00  0.00    -0.292 OA
BRANCH   7   9
ATOM      9  C2  UNK     1      48.955  11.417  -8.141  1.00  0.00     0.088 C 
BRANCH   9  10
ATOM     10  C1  UNK     1      48.319  10.026  -8.159  1.00  0.00     0.046 C 
BRANCH  10  11
ATOM     11  C3  UNK     1      46.846  10.091  -8.474  1.00  0.00    -0.058 A 
ATOM     12  C6  UNK     1      46.238   9.021  -9.113  1.00  0.00     0.010 A 
ATOM     13  C12 UNK     1      44.875   9.081  -9.404  1.00  0.00     0.037 A 
ATOM     14  C15 UNK     1      44.136  10.212  -9.055  1.00  0.00     0.065 A 
ATOM     15  C13 UNK     1      44.761  11.282  -8.413  1.00  0.00     0.037 A 
ATOM     16  C7  UNK     1      46.123  11.221  -8.121  1.00  0.00     0.010 A 
BRANCH  14  17
ATOM     17  O5  UNK     1      42.807  10.270  -9.337  1.00  0.00    -0.361 OA
ATOM     18  H14 UNK     1      42.412  11.013  -8.850  1.00  0.00     0.217 HD
ENDBRANCH  14  17
ENDBRANCH  10  11
ENDBRANCH   9  10
ENDBRANCH   7   9
ENDBRANCH   1   7
BRANCH   2  19
ATOM     19  O2  UNK     1      47.546  11.304  -5.011  1.00  0.00    -0.360 OA
ATOM     20  H11 UNK     1      46.959  11.239  -4.241  1.00  0.00     0.217 HD
ENDBRANCH   2  19
BRANCH   3  21
ATOM     21  O3  UNK     1      50.763  14.348  -6.861  1.00  0.00    -0.360 OA
ATOM     22  H12 UNK     1      50.727  13.730  -7.612  1.00  0.00     0.217 HD
ENDBRANCH   3  21
BRANCH   6  23
ATOM     23  O4  UNK     1      47.721  15.819  -3.503  1.00  0.00    -0.361 OA
ATOM     24  H13 UNK     1      48.308  15.906  -2.732  1.00  0.00     0.217 HD
ENDBRANCH   6  23
TORSDOF 8
ENDMDL
MODEL 14
REMARK VINA RESULT:      -6.1      9.087     11.499
REMARK  8 active torsions:
REMARK  status: ('A' for Active; 'I' for Inactive)
REMARK    1  A    between atoms: O2_2  and  C8_13 
REMARK    2  A    between atoms: O3_3  and  C9_14 
REMARK    3  A    between atoms: O4_4  and  C14_19 
REMARK    4  A    between atoms: O5_5  and  C15_20 
REMARK    5  A    between atoms: C1_6  and  C2_7 
REMARK    6  A    between atoms: C1_6  and  C3_8 
REMARK    7  A    between atoms: C2_7  and  C4_9 
REMARK    8  A    between atoms: C4_9  and  C5_10 
ROOT
ATOM      1  C5  UNK     1      49.161  12.805  -5.958  1.00  0.00     0.076 A 
ATOM      2  C8  UNK     1      48.106  12.548  -5.083  1.00  0.00     0.085 A 
ATOM      3  C9  UNK     1      49.732  14.077  -6.007  1.00  0.00     0.085 A 
ATOM      4  C10 UNK     1      47.621  13.563  -4.258  1.00  0.00     0.074 A 
ATOM      5  C11 UNK     1      49.248  15.091  -5.182  1.00  0.00     0.074 A 
ATOM      6  C14 UNK     1      48.192  14.835  -4.307  1.00  0.00     0.071 A 
ENDROOT
BRANCH   1   7
ATOM      7  C4  UNK     1      49.667  11.743  -6.820  1.00  0.00     0.165 C 
ATOM      8  O1  UNK     1      50.676  11.087  -6.495  1.00  0.00    -0.292 OA
BRANCH   7   9
ATOM      9  C2  UNK     1      48.953  11.429  -8.146  1.00  0.00     0.088 C 
BRANCH   9  10
ATOM     10  C1  UNK     1      48.325  10.034  -8.178  1.00  0.00     0.046 C 
BRANCH  10  11
ATOM     11  C3  UNK     1      46.851  10.094  -8.485  1.00  0.00    -0.058 A 
ATOM     12  C6  UNK     1      46.127  11.222  -8.133  1.00  0.00     0.010 A 
ATOM     13  C12 UNK     1      44.762  11.278  -8.417  1.00  0.00     0.037 A 
ATOM     14  C15 UNK     1      44.137  10.202  -9.049  1.00  0.00     0.065 A 
ATOM     15  C13 UNK     1      44.877   9.072  -9.398  1.00  0.00     0.037 A 
ATOM     16  C7  UNK     1      46.242   9.018  -9.114  1.00  0.00     0.010 A 
BRANCH  14  17
ATOM     17  O5  UNK     1      42.807  10.257  -9.328  1.00  0.00    -0.361 OA
ATOM     18  H14 UNK     1      42.510   9.380  -9.627  1.00  0.00     0.217 HD
ENDBRANCH  14  17
ENDBRANCH  10  11
ENDBRANCH   9  10
ENDBRANCH   7   9
ENDBRANCH   1   7
BRANCH   2  19
ATOM     19  O2  UNK     1      47.533  11.313  -5.018  1.00  0.00    -0.360 OA
ATOM     20  H11 UNK     1      47.068  11.195  -4.174  1.00  0.00     0.217 HD
ENDBRANCH   2  19
BRANCH   3  21
ATOM     21  O3  UNK     1      50.765  14.349  -6.855  1.00  0.00    -0.360 OA
ATOM     22  H12 UNK     1      51.006  15.287  -6.771  1.00  0.00     0.217 HD
ENDBRANCH   3  21
BRANCH   6  23
ATOM     23  O4  UNK     1      47.719  15.825  -3.502  1.00  0.00    -0.361 OA
ATOM     24  H13 UNK     1      48.181  16.653  -3.718  1.00  0.00     0.217 HD
ENDBRANCH   6  23
TORSDOF 8
ENDMDL
MODEL 15
REMARK VINA RESULT:      -5.9      9.329     11.443
REMARK  8 active torsions:
REMARK  status: ('A' for Active; 'I' for Inactive)
REMARK    1  A    between atoms: O2_2  and  C8_13 
REMARK    2  A    between atoms: O3_3  and  C9_14 
REMARK    3  A    between atoms: O4_4  and  C14_19 
REMARK    4  A    between atoms: O5_5  and  C15_20 
REMARK    5  A    between atoms: C1_6  and  C2_7 
REMARK    6  A    between atoms: C1_6  and  C3_8 
REMARK    7  A    between atoms: C2_7  and  C4_9 
REMARK    8  A    between atoms: C4_9  and  C5_10 
ROOT
ATOM      1  C5  UNK     1      50.596  10.530  -5.680  1.00  0.00     0.076 A 
ATOM      2  C8  UNK     1      49.737   9.993  -4.720  1.00  0.00     0.085 A 
ATOM      3  C9  UNK     1      51.645  11.362  -5.288  1.00  0.00     0.085 A 
ATOM      4  C10 UNK     1      49.926  10.289  -3.371  1.00  0.00     0.074 A 
ATOM      5  C11 UNK     1      51.835  11.658  -3.939  1.00  0.00     0.074 A 
ATOM      6  C14 UNK     1      50.975  11.121  -2.979  1.00  0.00     0.071 A 
ENDROOT
BRANCH   1   7
ATOM      7  C4  UNK     1      50.397  10.219  -7.091  1.00  0.00     0.165 C 
ATOM      8  O1  UNK     1      50.616   9.072  -7.525  1.00  0.00    -0.292 OA
BRANCH   7   9
ATOM      9  C2  UNK     1      49.917  11.317  -8.055  1.00  0.00     0.088 C 
BRANCH   9  10
ATOM     10  C1  UNK     1      48.492  11.792  -7.767  1.00  0.00     0.046 C 
BRANCH  10  11
ATOM     11  C3  UNK     1      48.442  12.717  -6.578  1.00  0.00    -0.058 A 
ATOM     12  C6  UNK     1      49.240  13.850  -6.562  1.00  0.00     0.010 A 
ATOM     13  C12 UNK     1      49.194  14.706  -5.461  1.00  0.00     0.037 A 
ATOM     14  C15 UNK     1      48.350  14.417  -4.388  1.00  0.00     0.065 A 
ATOM     15  C13 UNK     1      47.552  13.273  -4.417  1.00  0.00     0.037 A 
ATOM     16  C7  UNK     1      47.598  12.418  -5.518  1.00  0.00     0.010 A 
BRANCH  14  17
ATOM     17  O5  UNK     1      48.304  15.252  -3.315  1.00  0.00    -0.361 OA
ATOM     18  H14 UNK     1      49.211  15.503  -3.071  1.00  0.00     0.217 HD
ENDBRANCH  14  17
ENDBRANCH  10  11
ENDBRANCH   9  10
ENDBRANCH   7   9
ENDBRANCH   1   7
BRANCH   2  19
ATOM     19  O2  UNK     1      48.706   9.177  -5.081  1.00  0.00    -0.360 OA
ATOM     20  H11 UNK     1      47.863   9.656  -5.049  1.00  0.00     0.217 HD
ENDBRANCH   2  19
BRANCH   3  21
ATOM     21  O3  UNK     1      52.496  11.897  -6.210  1.00  0.00    -0.360 OA
ATOM     22  H12 UNK     1      52.079  12.678  -6.612  1.00  0.00     0.217 HD
ENDBRANCH   3  21
BRANCH   6  23
ATOM     23  O4  UNK     1      51.160  11.411  -1.663  1.00  0.00    -0.361 OA
ATOM     24  H13 UNK     1      50.291  11.472  -1.229  1.00  0.00     0.217 HD
ENDBRANCH   6  23
TORSDOF 8
ENDMDL
MODEL 16
REMARK VINA RESULT:      -5.9      9.326     11.547
REMARK  8 active torsions:
REMARK  status: ('A' for Active; 'I' for Inactive)
REMARK    1  A    between atoms: O2_2  and  C8_13 
REMARK    2  A    between atoms: O3_3  and  C9_14 
REMARK    3  A    between atoms: O4_4  and  C14_19 
REMARK    4  A    between atoms: O5_5  and  C15_20 
REMARK    5  A    between atoms: C1_6  and  C2_7 
REMARK    6  A    between atoms: C1_6  and  C3_8 
REMARK    7  A    between atoms: C2_7  and  C4_9 
REMARK    8  A    between atoms: C4_9  and  C5_10 
ROOT
ATOM      1  C5  UNK     1      50.625  10.535  -5.636  1.00  0.00     0.076 A 
ATOM      2  C8  UNK     1      51.663  11.368  -5.221  1.00  0.00     0.085 A 
ATOM      3  C9  UNK     1      49.746   9.994  -4.697  1.00  0.00     0.085 A 
ATOM      4  C10 UNK     1      51.824  11.660  -3.866  1.00  0.00     0.074 A 
ATOM      5  C11 UNK     1      49.906  10.286  -3.343  1.00  0.00     0.074 A 
ATOM      6  C14 UNK     1      50.945  11.120  -2.927  1.00  0.00     0.071 A 
ENDROOT
BRANCH   1   7
ATOM      7  C4  UNK     1      50.458  10.230  -7.053  1.00  0.00     0.165 C 
ATOM      8  O1  UNK     1      50.709   9.091  -7.491  1.00  0.00    -0.292 OA
BRANCH   7   9
ATOM      9  C2  UNK     1      49.970  11.324  -8.018  1.00  0.00     0.088 C 
BRANCH   9  10
ATOM     10  C1  UNK     1      48.538  11.782  -7.738  1.00  0.00     0.046 C 
BRANCH  10  11
ATOM     11  C3  UNK     1      48.472  12.712  -6.554  1.00  0.00    -0.058 A 
ATOM     12  C6  UNK     1      49.270  13.845  -6.531  1.00  0.00     0.010 A 
ATOM     13  C12 UNK     1      49.209  14.706  -5.435  1.00  0.00     0.037 A 
ATOM     14  C15 UNK     1      48.349  14.422  -4.373  1.00  0.00     0.065 A 
ATOM     15  C13 UNK     1      47.551  13.278  -4.408  1.00  0.00     0.037 A 
ATOM     16  C7  UNK     1      47.613  12.419  -5.504  1.00  0.00     0.010 A 
BRANCH  14  17
ATOM     17  O5  UNK     1      48.288  15.262  -3.305  1.00  0.00    -0.361 OA
ATOM     18  H14 UNK     1      48.470  14.757  -2.495  1.00  0.00     0.217 HD
ENDBRANCH  14  17
ENDBRANCH  10  11
ENDBRANCH   9  10
ENDBRANCH   7   9
ENDBRANCH   1   7
BRANCH   2  19
ATOM     19  O2  UNK     1      52.533  11.907  -6.121  1.00  0.00    -0.360 OA
ATOM     20  H11 UNK     1      52.061  12.216  -6.911  1.00  0.00     0.217 HD
ENDBRANCH   2  19
BRANCH   3  21
ATOM     21  O3  UNK     1      48.724   9.178  -5.083  1.00  0.00    -0.360 OA
ATOM     22  H12 UNK     1      48.492   9.374  -6.007  1.00  0.00     0.217 HD
ENDBRANCH   3  21
BRANCH   6  23
ATOM     23  O4  UNK     1      51.101  11.404  -1.606  1.00  0.00    -0.361 OA
ATOM     24  H13 UNK     1      51.451  12.307  -1.517  1.00  0.00     0.217 HD
ENDBRANCH   6  23
TORSDOF 8
ENDMDL
MODEL 17
REMARK VINA RESULT:      -5.8      9.556     10.844
REMARK  8 active torsions:
REMARK  status: ('A' for Active; 'I' for Inactive)
REMARK    1  A    between atoms: O2_2  and  C8_13 
REMARK    2  A    between atoms: O3_3  and  C9_14 
REMARK    3  A    between atoms: O4_4  and  C14_19 
REMARK    4  A    between atoms: O5_5  and  C15_20 
REMARK    5  A    between atoms: C1_6  and  C2_7 
REMARK    6  A    between atoms: C1_6  and  C3_8 
REMARK    7  A    between atoms: C2_7  and  C4_9 
REMARK    8  A    between atoms: C4_9  and  C5_10 
ROOT
ATOM      1  C5  UNK     1      44.576  10.274  -9.895  1.00  0.00     0.076 A 
ATOM      2  C8  UNK     1      44.634   8.911  -9.606  1.00  0.00     0.085 A 
ATOM      3  C9  UNK     1      43.442  10.809 -10.507  1.00  0.00     0.085 A 
ATOM      4  C10 UNK     1      43.559   8.083  -9.929  1.00  0.00     0.074 A 
ATOM      5  C11 UNK     1      42.367   9.983 -10.830  1.00  0.00     0.074 A 
ATOM      6  C14 UNK     1      42.425   8.618 -10.540  1.00  0.00     0.071 A 
ENDROOT
BRANCH   1   7
ATOM      7  C4  UNK     1      45.701  11.139  -9.557  1.00  0.00     0.165 C 
ATOM      8  O1  UNK     1      46.491  11.528 -10.439  1.00  0.00    -0.292 OA
BRANCH   7   9
ATOM      9  C2  UNK     1      45.918  11.575  -8.098  1.00  0.00     0.088 C 
BRANCH   9  10
ATOM     10  C1  UNK     1      47.345  11.332  -7.601  1.00  0.00     0.046 C 
BRANCH  10  11
ATOM     11  C3  UNK     1      47.706  12.259  -6.469  1.00  0.00    -0.058 A 
ATOM     12  C6  UNK     1      48.236  13.508  -6.752  1.00  0.00     0.010 A 
ATOM     13  C12 UNK     1      48.570  14.366  -5.704  1.00  0.00     0.037 A 
ATOM     14  C15 UNK     1      48.371  13.963  -4.383  1.00  0.00     0.065 A 
ATOM     15  C13 UNK     1      47.837  12.702  -4.111  1.00  0.00     0.037 A 
ATOM     16  C7  UNK     1      47.503  11.846  -5.160  1.00  0.00     0.010 A 
BRANCH  14  17
ATOM     17  O5  UNK     1      48.695  14.799  -3.360  1.00  0.00    -0.361 OA
ATOM     18  H14 UNK     1      49.577  15.173  -3.526  1.00  0.00     0.217 HD
ENDBRANCH  14  17
ENDBRANCH  10  11
ENDBRANCH   9  10
ENDBRANCH   7   9
ENDBRANCH   1   7
BRANCH   2  19
ATOM     19  O2  UNK     1      45.731   8.367  -9.008  1.00  0.00    -0.360 OA
ATOM     20  H11 UNK     1      46.354   9.061  -8.738  1.00  0.00     0.217 HD
ENDBRANCH   2  19
BRANCH   3  21
ATOM     21  O3  UNK     1      43.365  12.140 -10.798  1.00  0.00    -0.360 OA
ATOM     22  H12 UNK     1      42.734  12.562 -10.190  1.00  0.00     0.217 HD
ENDBRANCH   3  21
BRANCH   6  23
ATOM     23  O4  UNK     1      41.376   7.811 -10.856  1.00  0.00    -0.361 OA
ATOM     24  H13 UNK     1      40.927   8.171 -11.641  1.00  0.00     0.217 HD
ENDBRANCH   6  23
TORSDOF 8
ENDMDL
MODEL 18
REMARK VINA RESULT:      -5.7      9.527     10.790
REMARK  8 active torsions:
REMARK  status: ('A' for Active; 'I' for Inactive)
REMARK    1  A    between atoms: O2_2  and  C8_13 
REMARK    2  A    between atoms: O3_3  and  C9_14 
REMARK    3  A    between atoms: O4_4  and  C14_19 
REMARK    4  A    between atoms: O5_5  and  C15_20 
REMARK    5  A    between atoms: C1_6  and  C2_7 
REMARK    6  A    between atoms: C1_6  and  C3_8 
REMARK    7  A    between atoms: C2_7  and  C4_9 
REMARK    8  A    between atoms: C4_9  and  C5_10 
ROOT
ATOM      1  C5  UNK     1      44.638  10.232  -9.862  1.00  0.00     0.076 A 
ATOM      2  C8  UNK     1      43.501  10.790 -10.444  1.00  0.00     0.085 A 
ATOM      3  C9  UNK     1      44.700   8.857  -9.632  1.00  0.00     0.085 A 
ATOM      4  C10 UNK     1      42.425   9.975 -10.796  1.00  0.00     0.074 A 
ATOM      5  C11 UNK     1      43.626   8.042  -9.984  1.00  0.00     0.074 A 
ATOM      6  C14 UNK     1      42.487   8.600 -10.566  1.00  0.00     0.071 A 
ENDROOT
BRANCH   1   7
ATOM      7  C4  UNK     1      45.763  11.085  -9.494  1.00  0.00     0.165 C 
ATOM      8  O1  UNK     1      46.530  11.535 -10.367  1.00  0.00    -0.292 OA
BRANCH   7   9
ATOM      9  C2  UNK     1      46.007  11.434  -8.016  1.00  0.00     0.088 C 
BRANCH   9  10
ATOM     10  C1  UNK     1      47.480  11.348  -7.611  1.00  0.00     0.046 C 
BRANCH  10  11
ATOM     11  C3  UNK     1      47.801  12.285  -6.475  1.00  0.00    -0.058 A 
ATOM     12  C6  UNK     1      48.391  13.510  -6.747  1.00  0.00     0.010 A 
ATOM     13  C12 UNK     1      48.687  14.377  -5.695  1.00  0.00     0.037 A 
ATOM     14  C15 UNK     1      48.391  14.008  -4.382  1.00  0.00     0.065 A 
ATOM     15  C13 UNK     1      47.797  12.772  -4.122  1.00  0.00     0.037 A 
ATOM     16  C7  UNK     1      47.500  11.906  -5.174  1.00  0.00     0.010 A 
BRANCH  14  17
ATOM     17  O5  UNK     1      48.678  14.854  -3.356  1.00  0.00    -0.361 OA
ATOM     18  H14 UNK     1      47.928  15.458  -3.226  1.00  0.00     0.217 HD
ENDBRANCH  14  17
ENDBRANCH  10  11
ENDBRANCH   9  10
ENDBRANCH   7   9
ENDBRANCH   1   7
BRANCH   2  19
ATOM     19  O2  UNK     1      43.419  12.131 -10.678  1.00  0.00    -0.360 OA
ATOM     20  H11 UNK     1      42.623  12.502 -10.266  1.00  0.00     0.217 HD
ENDBRANCH   2  19
BRANCH   3  21
ATOM     21  O3  UNK     1      45.804   8.291  -9.064  1.00  0.00    -0.360 OA
ATOM     22  H12 UNK     1      45.572   7.406  -8.733  1.00  0.00     0.217 HD
ENDBRANCH   3  21
BRANCH   6  23
ATOM     23  O4  UNK     1      41.438   7.804 -10.909  1.00  0.00    -0.361 OA
ATOM     24  H13 UNK     1      41.074   7.400 -10.103  1.00  0.00     0.217 HD
ENDBRANCH   6  23
TORSDOF 8
ENDMDL
MODEL 19
REMARK VINA RESULT:      -5.6      9.901     11.793
REMARK  8 active torsions:
REMARK  status: ('A' for Active; 'I' for Inactive)
REMARK    1  A    between atoms: O2_2  and  C8_13 
REMARK    2  A    between atoms: O3_3  and  C9_14 
REMARK    3  A    between atoms: O4_4  and  C14_19 
REMARK    4  A    between atoms: O5_5  and  C15_20 
REMARK    5  A    between atoms: C1_6  and  C2_7 
REMARK    6  A    between atoms: C1_6  and  C3_8 
REMARK    7  A    between atoms: C2_7  and  C4_9 
REMARK    8  A    between atoms: C4_9  and  C5_10 
ROOT
ATOM      1  C5  UNK     1      49.537  11.730  -4.824  1.00  0.00     0.076 A 
ATOM      2  C8  UNK     1      49.629  10.338  -4.815  1.00  0.00     0.085 A 
ATOM      3  C9  UNK     1      50.683  12.505  -4.646  1.00  0.00     0.085 A 
ATOM      4  C10 UNK     1      50.866   9.722  -4.627  1.00  0.00     0.074 A 
ATOM      5  C11 UNK     1      51.920  11.890  -4.458  1.00  0.00     0.074 A 
ATOM      6  C14 UNK     1      52.012  10.497  -4.449  1.00  0.00     0.071 A 
ENDROOT
BRANCH   1   7
ATOM      7  C4  UNK     1      48.243  12.373  -5.021  1.00  0.00     0.165 C 
ATOM      8  O1  UNK     1      47.390  12.374  -4.113  1.00  0.00    -0.292 OA
BRANCH   7   9
ATOM      9  C2  UNK     1      47.925  13.056  -6.362  1.00  0.00     0.088 C 
BRANCH   9  10
ATOM     10  C1  UNK     1      48.316  12.213  -7.577  1.00  0.00     0.046 C 
BRANCH  10  11
ATOM     11  C3  UNK     1      47.211  11.270  -7.979  1.00  0.00    -0.058 A 
ATOM     12  C6  UNK     1      45.894  11.701  -7.928  1.00  0.00     0.010 A 
ATOM     13  C12 UNK     1      44.872  10.828  -8.301  1.00  0.00     0.037 A 
ATOM     14  C15 UNK     1      45.179   9.532  -8.718  1.00  0.00     0.065 A 
ATOM     15  C13 UNK     1      46.508   9.111  -8.764  1.00  0.00     0.037 A 
ATOM     16  C7  UNK     1      47.530   9.984  -8.393  1.00  0.00     0.010 A 
BRANCH  14  17
ATOM     17  O5  UNK     1      44.182   8.681  -9.083  1.00  0.00    -0.361 OA
ATOM     18  H14 UNK     1      44.493   7.766  -8.977  1.00  0.00     0.217 HD
ENDBRANCH  14  17
ENDBRANCH  10  11
ENDBRANCH   9  10
ENDBRANCH   7   9
ENDBRANCH   1   7
BRANCH   2  19
ATOM     19  O2  UNK     1      48.523   9.561  -4.988  1.00  0.00    -0.360 OA
ATOM     20  H11 UNK     1      48.636   8.968  -5.747  1.00  0.00     0.217 HD
ENDBRANCH   2  19
BRANCH   3  21
ATOM     21  O3  UNK     1      50.615  13.867  -4.652  1.00  0.00    -0.360 OA
ATOM     22  H12 UNK     1      51.137  14.215  -3.907  1.00  0.00     0.217 HD
ENDBRANCH   3  21
BRANCH   6  23
ATOM     23  O4  UNK     1      53.219   9.897  -4.265  1.00  0.00    -0.361 OA
ATOM     24  H13 UNK     1      53.089   8.934  -4.224  1.00  0.00     0.217 HD
ENDBRANCH   6  23
TORSDOF 8
ENDMDL
MODEL 20
REMARK VINA RESULT:      -5.6      9.892     11.851
REMARK  8 active torsions:
REMARK  status: ('A' for Active; 'I' for Inactive)
REMARK    1  A    between atoms: O2_2  and  C8_13 
REMARK    2  A    between atoms: O3_3  and  C9_14 
REMARK    3  A    between atoms: O4_4  and  C14_19 
REMARK    4  A    between atoms: O5_5  and  C15_20 
REMARK    5  A    between atoms: C1_6  and  C2_7 
REMARK    6  A    between atoms: C1_6  and  C3_8 
REMARK    7  A    between atoms: C2_7  and  C4_9 
REMARK    8  A    between atoms: C4_9  and  C5_10 
ROOT
ATOM      1  C5  UNK     1      49.542  11.729  -4.820  1.00  0.00     0.076 A 
ATOM      2  C8  UNK     1      50.688  12.507  -4.659  1.00  0.00     0.085 A 
ATOM      3  C9  UNK     1      49.638  10.337  -4.815  1.00  0.00     0.085 A 
ATOM      4  C10 UNK     1      51.930  11.894  -4.493  1.00  0.00     0.074 A 
ATOM      5  C11 UNK     1      50.878   9.724  -4.649  1.00  0.00     0.074 A 
ATOM      6  C14 UNK     1      52.026  10.502  -4.489  1.00  0.00     0.071 A 
ENDROOT
BRANCH   1   7
ATOM      7  C4  UNK     1      48.244  12.371  -4.992  1.00  0.00     0.165 C 
ATOM      8  O1  UNK     1      47.405  12.365  -4.070  1.00  0.00    -0.292 OA
BRANCH   7   9
ATOM      9  C2  UNK     1      47.903  13.062  -6.323  1.00  0.00     0.088 C 
BRANCH   9  10
ATOM     10  C1  UNK     1      48.308  12.242  -7.550  1.00  0.00     0.046 C 
BRANCH  10  11
ATOM     11  C3  UNK     1      47.224  11.279  -7.960  1.00  0.00    -0.058 A 
ATOM     12  C6  UNK     1      47.567  10.004  -8.382  1.00  0.00     0.010 A 
ATOM     13  C12 UNK     1      46.563   9.113  -8.761  1.00  0.00     0.037 A 
ATOM     14  C15 UNK     1      45.226   9.509  -8.715  1.00  0.00     0.065 A 
ATOM     15  C13 UNK     1      44.893  10.795  -8.290  1.00  0.00     0.037 A 
ATOM     16  C7  UNK     1      45.898  11.685  -7.910  1.00  0.00     0.010 A 
BRANCH  14  17
ATOM     17  O5  UNK     1      44.247   8.639  -9.084  1.00  0.00    -0.361 OA
ATOM     18  H14 UNK     1      44.065   8.036  -8.343  1.00  0.00     0.217 HD
ENDBRANCH  14  17
ENDBRANCH  10  11
ENDBRANCH   9  10
ENDBRANCH   7   9
ENDBRANCH   1   7
BRANCH   2  19
ATOM     19  O2  UNK     1      50.618  13.868  -4.660  1.00  0.00    -0.360 OA
ATOM     20  H11 UNK     1      51.138  14.239  -3.929  1.00  0.00     0.217 HD
ENDBRANCH   2  19
BRANCH   3  21
ATOM     21  O3  UNK     1      48.529   9.558  -4.970  1.00  0.00    -0.360 OA
ATOM     22  H12 UNK     1      48.426   8.992  -4.186  1.00  0.00     0.217 HD
ENDBRANCH   3  21
BRANCH   6  23
ATOM     23  O4  UNK     1      53.237   9.903  -4.328  1.00  0.00    -0.361 OA
ATOM     24  H13 UNK     1      53.924  10.590  -4.283  1.00  0.00     0.217 HD
ENDBRANCH   6  23
TORSDOF 8
ENDMDL
