MODEL 1
REMARK VINA RESULT:      -8.3      0.000      0.000
REMARK  8 active torsions:
REMARK  status: ('A' for Active; 'I' for Inactive)
REMARK    1  A    between atoms: O2_2  and  C8_13 
REMARK    2  A    between atoms: O3_3  and  C9_14 
REMARK    3  A    between atoms: O4_4  and  C14_19 
REMARK    4  A    between atoms: O5_5  and  C15_20 
REMARK    5  A    between atoms: C1_6  and  C2_7 
REMARK    6  A    between atoms: C1_6  and  C3_8 
REMARK    7  A    between atoms: C2_7  and  C4_9 
REMARK    8  A    between atoms: C4_9  and  C5_10 
ROOT
ATOM      1  C5  UNK     1      40.224  13.122  -1.443  1.00  0.00     0.076 A 
ATOM      2  C8  UNK     1      39.177  12.830  -0.568  1.00  0.00     0.085 A 
ATOM      3  C9  UNK     1      41.386  12.352  -1.419  1.00  0.00     0.085 A 
ATOM      4  C10 UNK     1      39.293  11.769   0.330  1.00  0.00     0.074 A 
ATOM      5  C11 UNK     1      41.503  11.291  -0.522  1.00  0.00     0.074 A 
ATOM      6  C14 UNK     1      40.455  10.999   0.353  1.00  0.00     0.071 A 
ENDROOT
BRANCH   1   7
ATOM      7  C4  UNK     1      40.101  14.231  -2.382  1.00  0.00     0.165 C 
ATOM      8  O1  UNK     1      39.192  14.244  -3.234  1.00  0.00    -0.292 OA
BRANCH   7   9
ATOM      9  C2  UNK     1      41.104  15.396  -2.324  1.00  0.00     0.088 C 
BRANCH   9  10
ATOM     10  C1  UNK     1      40.564  16.689  -2.939  1.00  0.00     0.046 C 
BRANCH  10  11
ATOM     11  C3  UNK     1      39.885  17.555  -1.908  1.00  0.00    -0.058 A 
ATOM     12  C6  UNK     1      39.817  18.925  -2.108  1.00  0.00     0.010 A 
ATOM     13  C12 UNK     1      39.189  19.727  -1.154  1.00  0.00     0.037 A 
ATOM     14  C15 UNK     1      38.638  19.148  -0.010  1.00  0.00     0.065 A 
ATOM     15  C13 UNK     1      38.714  17.768   0.178  1.00  0.00     0.037 A 
ATOM     16  C7  UNK     1      39.341  16.967  -0.776  1.00  0.00     0.010 A 
BRANCH  14  17
ATOM     17  O5  UNK     1      38.024  19.930   0.919  1.00  0.00    -0.361 OA
ATOM     18  H14 UNK     1      37.715  20.746   0.490  1.00  0.00     0.217 HD
ENDBRANCH  14  17
ENDBRANCH  10  11
ENDBRANCH   9  10
ENDBRANCH   7   9
ENDBRANCH   1   7
BRANCH   2  19
ATOM     19  O2  UNK     1      38.031  13.570  -0.574  1.00  0.00    -0.360 OA
ATOM     20  H11 UNK     1      38.025  14.197   0.166  1.00  0.00     0.217 HD
ENDBRANCH   2  19
BRANCH   3  21
ATOM     21  O3  UNK     1      42.421  12.619  -2.266  1.00  0.00    -0.360 OA
ATOM     22  H12 UNK     1      42.214  13.420  -2.779  1.00  0.00     0.217 HD
ENDBRANCH   3  21
BRANCH   6  23
ATOM     23  O4  UNK     1      40.569   9.964   1.229  1.00  0.00    -0.361 OA
ATOM     24  H13 UNK     1      41.138  10.239   1.969  1.00  0.00     0.217 HD
ENDBRANCH   6  23
TORSDOF 8
ENDMDL
MODEL 2
REMARK VINA RESULT:      -8.3      0.025      1.863
REMARK  8 active torsions:
REMARK  status: ('A' for Active; 'I' for Inactive)
REMARK    1  A    between atoms: O2_2  and  C8_13 
REMARK    2  A    between atoms: O3_3  and  C9_14 
REMARK    3  A    between atoms: O4_4  and  C14_19 
REMARK    4  A    between atoms: O5_5  and  C15_20 
REMARK    5  A    between atoms: C1_6  and  C2_7 
REMARK    6  A    between atoms: C1_6  and  C3_8 
REMARK    7  A    between atoms: C2_7  and  C4_9 
REMARK    8  A    between atoms: C4_9  and  C5_10 
ROOT
ATOM      1  C5  UNK     1      40.219  13.117  -1.434  1.00  0.00     0.076 A 
ATOM      2  C8  UNK     1      41.381  12.347  -1.399  1.00  0.00     0.085 A 
ATOM      3  C9  UNK     1      39.167  12.831  -0.563  1.00  0.00     0.085 A 
ATOM      4  C10 UNK     1      41.491  11.290  -0.495  1.00  0.00     0.074 A 
ATOM      5  C11 UNK     1      39.277  11.775   0.341  1.00  0.00     0.074 A 
ATOM      6  C14 UNK     1      40.440  11.004   0.375  1.00  0.00     0.071 A 
ENDROOT
BRANCH   1   7
ATOM      7  C4  UNK     1      40.105  14.222  -2.379  1.00  0.00     0.165 C 
ATOM      8  O1  UNK     1      39.196  14.236  -3.232  1.00  0.00    -0.292 OA
BRANCH   7   9
ATOM      9  C2  UNK     1      41.115  15.380  -2.327  1.00  0.00     0.088 C 
BRANCH   9  10
ATOM     10  C1  UNK     1      40.583  16.674  -2.947  1.00  0.00     0.046 C 
BRANCH  10  11
ATOM     11  C3  UNK     1      39.895  17.540  -1.923  1.00  0.00    -0.058 A 
ATOM     12  C6  UNK     1      39.816  18.909  -2.130  1.00  0.00     0.010 A 
ATOM     13  C12 UNK     1      39.179  19.711  -1.182  1.00  0.00     0.037 A 
ATOM     14  C15 UNK     1      38.629  19.134  -0.037  1.00  0.00     0.065 A 
ATOM     15  C13 UNK     1      38.716  17.755   0.160  1.00  0.00     0.037 A 
ATOM     16  C7  UNK     1      39.352  16.954  -0.788  1.00  0.00     0.010 A 
BRANCH  14  17
ATOM     17  O5  UNK     1      38.007  19.915   0.886  1.00  0.00    -0.361 OA
ATOM     18  H14 UNK     1      37.053  19.920   0.703  1.00  0.00     0.217 HD
ENDBRANCH  14  17
ENDBRANCH  10  11
ENDBRANCH   9  10
ENDBRANCH   7   9
ENDBRANCH   1   7
BRANCH   2  19
ATOM     19  O2  UNK     1      42.421  12.609  -2.240  1.00  0.00    -0.360 OA
ATOM     20  H11 UNK     1      42.154  13.237  -2.930  1.00  0.00     0.217 HD
ENDBRANCH   2  19
BRANCH   3  21
ATOM     21  O3  UNK     1      38.022  13.572  -0.580  1.00  0.00    -0.360 OA
ATOM     22  H12 UNK     1      37.936  14.042   0.267  1.00  0.00     0.217 HD
ENDBRANCH   3  21
BRANCH   6  23
ATOM     23  O4  UNK     1      40.547   9.973   1.257  1.00  0.00    -0.361 OA
ATOM     24  H13 UNK     1      40.491  10.326   2.162  1.00  0.00     0.217 HD
ENDBRANCH   6  23
TORSDOF 8
ENDMDL
MODEL 3
REMARK VINA RESULT:      -8.2      1.463      6.307
REMARK  8 active torsions:
REMARK  status: ('A' for Active; 'I' for Inactive)
REMARK    1  A    between atoms: O2_2  and  C8_13 
REMARK    2  A    between atoms: O3_3  and  C9_14 
REMARK    3  A    between atoms: O4_4  and  C14_19 
REMARK    4  A    between atoms: O5_5  and  C15_20 
REMARK    5  A    between atoms: C1_6  and  C2_7 
REMARK    6  A    between atoms: C1_6  and  C3_8 
REMARK    7  A    between atoms: C2_7  and  C4_9 
REMARK    8  A    between atoms: C4_9  and  C5_10 
ROOT
ATOM      1  C5  UNK     1      39.862  16.761  -2.152  1.00  0.00     0.076 A 
ATOM      2  C8  UNK     1      39.178  16.882  -0.943  1.00  0.00     0.085 A 
ATOM      3  C9  UNK     1      40.207  17.903  -2.875  1.00  0.00     0.085 A 
ATOM      4  C10 UNK     1      38.838  18.144  -0.456  1.00  0.00     0.074 A 
ATOM      5  C11 UNK     1      39.869  19.165  -2.389  1.00  0.00     0.074 A 
ATOM      6  C14 UNK     1      39.183  19.286  -1.179  1.00  0.00     0.071 A 
ENDROOT
BRANCH   1   7
ATOM      7  C4  UNK     1      40.216  15.440  -2.659  1.00  0.00     0.165 C 
ATOM      8  O1  UNK     1      39.355  14.709  -3.185  1.00  0.00    -0.292 OA
BRANCH   7   9
ATOM      9  C2  UNK     1      41.666  14.941  -2.544  1.00  0.00     0.088 C 
BRANCH   9  10
ATOM     10  C1  UNK     1      42.110  14.702  -1.099  1.00  0.00     0.046 C 
BRANCH  10  11
ATOM     11  C3  UNK     1      41.577  13.400  -0.560  1.00  0.00    -0.058 A 
ATOM     12  C6  UNK     1      41.695  12.248  -1.322  1.00  0.00     0.010 A 
ATOM     13  C12 UNK     1      41.202  11.041  -0.823  1.00  0.00     0.037 A 
ATOM     14  C15 UNK     1      40.594  11.002   0.432  1.00  0.00     0.065 A 
ATOM     15  C13 UNK     1      40.481  12.169   1.189  1.00  0.00     0.037 A 
ATOM     16  C7  UNK     1      40.975  13.374   0.690  1.00  0.00     0.010 A 
BRANCH  14  17
ATOM     17  O5  UNK     1      40.114   9.826   0.919  1.00  0.00    -0.361 OA
ATOM     18  H14 UNK     1      39.149   9.894   1.014  1.00  0.00     0.217 HD
ENDBRANCH  14  17
ENDBRANCH  10  11
ENDBRANCH   9  10
ENDBRANCH   7   9
ENDBRANCH   1   7
BRANCH   2  19
ATOM     19  O2  UNK     1      38.831  15.780  -0.220  1.00  0.00    -0.360 OA
ATOM     20  H11 UNK     1      39.170  14.973  -0.640  1.00  0.00     0.217 HD
ENDBRANCH   2  19
BRANCH   3  21
ATOM     21  O3  UNK     1      40.877  17.807  -4.059  1.00  0.00    -0.360 OA
ATOM     22  H12 UNK     1      40.470  17.107  -4.598  1.00  0.00     0.217 HD
ENDBRANCH   3  21
BRANCH   6  23
ATOM     23  O4  UNK     1      38.852  20.518  -0.706  1.00  0.00    -0.361 OA
ATOM     24  H13 UNK     1      38.351  20.995  -1.390  1.00  0.00     0.217 HD
ENDBRANCH   6  23
TORSDOF 8
ENDMDL
MODEL 4
REMARK VINA RESULT:      -8.2      1.456      6.466
REMARK  8 active torsions:
REMARK  status: ('A' for Active; 'I' for Inactive)
REMARK    1  A    between atoms: O2_2  and  C8_13 
REMARK    2  A    between atoms: O3_3  and  C9_14 
REMARK    3  A    between atoms: O4_4  and  C14_19 
REMARK    4  A    between atoms: O5_5  and  C15_20 
REMARK    5  A    between atoms: C1_6  and  C2_7 
REMARK    6  A    between atoms: C1_6  and  C3_8 
REMARK    7  A    between atoms: C2_7  and  C4_9 
REMARK    8  A    between atoms: C4_9  and  C5_10 
ROOT
ATOM      1  C5  UNK     1      39.857  16.733  -2.134  1.00  0.00     0.076 A 
ATOM      2  C8  UNK     1      40.186  17.876  -2.863  1.00  0.00     0.085 A 
ATOM      3  C9  UNK     1      39.177  16.852  -0.922  1.00  0.00     0.085 A 
ATOM      4  C10 UNK     1      39.835  19.137  -2.380  1.00  0.00     0.074 A 
ATOM      5  C11 UNK     1      38.825  18.112  -0.439  1.00  0.00     0.074 A 
ATOM      6  C14 UNK     1      39.155  19.255  -1.168  1.00  0.00     0.071 A 
ENDROOT
BRANCH   1   7
ATOM      7  C4  UNK     1      40.224  15.416  -2.640  1.00  0.00     0.165 C 
ATOM      8  O1  UNK     1      39.364  14.667  -3.144  1.00  0.00    -0.292 OA
BRANCH   7   9
ATOM      9  C2  UNK     1      41.684  14.941  -2.548  1.00  0.00     0.088 C 
BRANCH   9  10
ATOM     10  C1  UNK     1      42.148  14.687  -1.113  1.00  0.00     0.046 C 
BRANCH  10  11
ATOM     11  C3  UNK     1      41.600  13.391  -0.571  1.00  0.00    -0.058 A 
ATOM     12  C6  UNK     1      41.006  13.373   0.682  1.00  0.00     0.010 A 
ATOM     13  C12 UNK     1      40.498  12.174   1.183  1.00  0.00     0.037 A 
ATOM     14  C15 UNK     1      40.592  11.006   0.425  1.00  0.00     0.065 A 
ATOM     15  C13 UNK     1      41.191  11.038  -0.834  1.00  0.00     0.037 A 
ATOM     16  C7  UNK     1      41.698  12.237  -1.335  1.00  0.00     0.010 A 
BRANCH  14  17
ATOM     17  O5  UNK     1      40.095   9.838   0.913  1.00  0.00    -0.361 OA
ATOM     18  H14 UNK     1      39.452   9.478   0.279  1.00  0.00     0.217 HD
ENDBRANCH  14  17
ENDBRANCH  10  11
ENDBRANCH   9  10
ENDBRANCH   7   9
ENDBRANCH   1   7
BRANCH   2  19
ATOM     19  O2  UNK     1      40.850  17.783  -4.050  1.00  0.00    -0.360 OA
ATOM     20  H11 UNK     1      40.227  17.805  -4.794  1.00  0.00     0.217 HD
ENDBRANCH   2  19
BRANCH   3  21
ATOM     21  O3  UNK     1      38.845  15.748  -0.194  1.00  0.00    -0.360 OA
ATOM     22  H12 UNK     1      39.628  15.177  -0.106  1.00  0.00     0.217 HD
ENDBRANCH   3  21
BRANCH   6  23
ATOM     23  O4  UNK     1      38.813  20.485  -0.697  1.00  0.00    -0.361 OA
ATOM     24  H13 UNK     1      38.763  20.447   0.274  1.00  0.00     0.217 HD
ENDBRANCH   6  23
TORSDOF 8
ENDMDL
MODEL 5
REMARK VINA RESULT:      -6.4      1.466      1.996
REMARK  8 active torsions:
REMARK  status: ('A' for Active; 'I' for Inactive)
REMARK    1  A    between atoms: O2_2  and  C8_13 
REMARK    2  A    between atoms: O3_3  and  C9_14 
REMARK    3  A    between atoms: O4_4  and  C14_19 
REMARK    4  A    between atoms: O5_5  and  C15_20 
REMARK    5  A    between atoms: C1_6  and  C2_7 
REMARK    6  A    between atoms: C1_6  and  C3_8 
REMARK    7  A    between atoms: C2_7  and  C4_9 
REMARK    8  A    between atoms: C4_9  and  C5_10 
ROOT
ATOM      1  C5  UNK     1      39.999  13.355  -0.864  1.00  0.00     0.076 A 
ATOM      2  C8  UNK     1      39.291  12.301  -0.287  1.00  0.00     0.085 A 
ATOM      3  C9  UNK     1      41.296  13.640  -0.437  1.00  0.00     0.085 A 
ATOM      4  C10 UNK     1      39.879  11.533   0.717  1.00  0.00     0.074 A 
ATOM      5  C11 UNK     1      41.885  12.872   0.567  1.00  0.00     0.074 A 
ATOM      6  C14 UNK     1      41.176  11.818   1.145  1.00  0.00     0.071 A 
ENDROOT
BRANCH   1   7
ATOM      7  C4  UNK     1      39.383  14.157  -1.915  1.00  0.00     0.165 C 
ATOM      8  O1  UNK     1      39.848  14.155  -3.071  1.00  0.00    -0.292 OA
BRANCH   7   9
ATOM      9  C2  UNK     1      38.149  15.018  -1.596  1.00  0.00     0.088 C 
BRANCH   9  10
ATOM     10  C1  UNK     1      38.318  15.873  -0.338  1.00  0.00     0.046 C 
BRANCH  10  11
ATOM     11  C3  UNK     1      38.754  17.276  -0.672  1.00  0.00    -0.058 A 
ATOM     12  C6  UNK     1      38.332  18.329   0.124  1.00  0.00     0.010 A 
ATOM     13  C12 UNK     1      38.736  19.628  -0.185  1.00  0.00     0.037 A 
ATOM     14  C15 UNK     1      39.557  19.859  -1.290  1.00  0.00     0.065 A 
ATOM     15  C13 UNK     1      39.974  18.790  -2.084  1.00  0.00     0.037 A 
ATOM     16  C7  UNK     1      39.571  17.491  -1.773  1.00  0.00     0.010 A 
BRANCH  14  17
ATOM     17  O5  UNK     1      39.953  21.125  -1.591  1.00  0.00    -0.361 OA
ATOM     18  H14 UNK     1      39.920  21.245  -2.555  1.00  0.00     0.217 HD
ENDBRANCH  14  17
ENDBRANCH  10  11
ENDBRANCH   9  10
ENDBRANCH   7   9
ENDBRANCH   1   7
BRANCH   2  19
ATOM     19  O2  UNK     1      38.023  12.004  -0.689  1.00  0.00    -0.360 OA
ATOM     20  H11 UNK     1      38.020  11.224  -1.266  1.00  0.00     0.217 HD
ENDBRANCH   2  19
BRANCH   3  21
ATOM     21  O3  UNK     1      42.006  14.665  -0.989  1.00  0.00    -0.360 OA
ATOM     22  H12 UNK     1      41.438  15.453  -1.041  1.00  0.00     0.217 HD
ENDBRANCH   3  21
BRANCH   6  23
ATOM     23  O4  UNK     1      41.750  11.069   2.125  1.00  0.00    -0.361 OA
ATOM     24  H13 UNK     1      41.893  11.629   2.907  1.00  0.00     0.217 HD
ENDBRANCH   6  23
TORSDOF 8
ENDMDL
MODEL 6
REMARK VINA RESULT:      -6.4      1.538      2.507
REMARK  8 active torsions:
REMARK  status: ('A' for Active; 'I' for Inactive)
REMARK    1  A    between atoms: O2_2  and  C8_13 
REMARK    2  A    between atoms: O3_3  and  C9_14 
REMARK    3  A    between atoms: O4_4  and  C14_19 
REMARK    4  A    between atoms: O5_5  and  C15_20 
REMARK    5  A    between atoms: C1_6  and  C2_7 
REMARK    6  A    between atoms: C1_6  and  C3_8 
REMARK    7  A    between atoms: C2_7  and  C4_9 
REMARK    8  A    between atoms: C4_9  and  C5_10 
ROOT
ATOM      1  C5  UNK     1      39.902  13.480  -0.918  1.00  0.00     0.076 A 
ATOM      2  C8  UNK     1      41.207  13.830  -0.573  1.00  0.00     0.085 A 
ATOM      3  C9  UNK     1      39.276  12.408  -0.282  1.00  0.00     0.085 A 
ATOM      4  C10 UNK     1      41.887  13.108   0.408  1.00  0.00     0.074 A 
ATOM      5  C11 UNK     1      39.955  11.686   0.699  1.00  0.00     0.074 A 
ATOM      6  C14 UNK     1      41.261  12.036   1.044  1.00  0.00     0.071 A 
ENDROOT
BRANCH   1   7
ATOM      7  C4  UNK     1      39.192  14.236  -1.944  1.00  0.00     0.165 C 
ATOM      8  O1  UNK     1      39.558  14.191  -3.134  1.00  0.00    -0.292 OA
BRANCH   7   9
ATOM      9  C2  UNK     1      37.980  15.100  -1.555  1.00  0.00     0.088 C 
BRANCH   9  10
ATOM     10  C1  UNK     1      38.230  15.972  -0.323  1.00  0.00     0.046 C 
BRANCH  10  11
ATOM     11  C3  UNK     1      38.714  17.348  -0.702  1.00  0.00    -0.058 A 
ATOM     12  C6  UNK     1      39.581  17.494  -1.774  1.00  0.00     0.010 A 
ATOM     13  C12 UNK     1      40.029  18.768  -2.126  1.00  0.00     0.037 A 
ATOM     14  C15 UNK     1      39.605  19.881  -1.399  1.00  0.00     0.065 A 
ATOM     15  C13 UNK     1      38.733  19.720  -0.322  1.00  0.00     0.037 A 
ATOM     16  C7  UNK     1      38.285  18.446   0.028  1.00  0.00     0.010 A 
BRANCH  14  17
ATOM     17  O5  UNK     1      40.040  21.123  -1.743  1.00  0.00    -0.361 OA
ATOM     18  H14 UNK     1      40.935  21.253  -1.387  1.00  0.00     0.217 HD
ENDBRANCH  14  17
ENDBRANCH  10  11
ENDBRANCH   9  10
ENDBRANCH   7   9
ENDBRANCH   1   7
BRANCH   2  19
ATOM     19  O2  UNK     1      41.837  14.874  -1.182  1.00  0.00    -0.360 OA
ATOM     20  H11 UNK     1      42.792  14.847  -1.007  1.00  0.00     0.217 HD
ENDBRANCH   2  19
BRANCH   3  21
ATOM     21  O3  UNK     1      38.000  12.050  -0.603  1.00  0.00    -0.360 OA
ATOM     22  H12 UNK     1      38.005  11.592  -1.462  1.00  0.00     0.217 HD
ENDBRANCH   3  21
BRANCH   6  23
ATOM     23  O4  UNK     1      41.924  11.331   2.001  1.00  0.00    -0.361 OA
ATOM     24  H13 UNK     1      42.593  11.907   2.410  1.00  0.00     0.217 HD
ENDBRANCH   6  23
TORSDOF 8
ENDMDL
MODEL 7
REMARK VINA RESULT:      -6.2      9.175     12.172
REMARK  8 active torsions:
REMARK  status: ('A' for Active; 'I' for Inactive)
REMARK    1  A    between atoms: O2_2  and  C8_13 
REMARK    2  A    between atoms: O3_3  and  C9_14 
REMARK    3  A    between atoms: O4_4  and  C14_19 
REMARK    4  A    between atoms: O5_5  and  C15_20 
REMARK    5  A    between atoms: C1_6  and  C2_7 
REMARK    6  A    between atoms: C1_6  and  C3_8 
REMARK    7  A    between atoms: C2_7  and  C4_9 
REMARK    8  A    between atoms: C4_9  and  C5_10 
ROOT
ATOM      1  C5  UNK     1      49.137  12.755  -5.920  1.00  0.00     0.076 A 
ATOM      2  C8  UNK     1      49.771  13.998  -5.934  1.00  0.00     0.085 A 
ATOM      3  C9  UNK     1      48.023  12.551  -5.106  1.00  0.00     0.085 A 
ATOM      4  C10 UNK     1      49.291  15.035  -5.135  1.00  0.00     0.074 A 
ATOM      5  C11 UNK     1      47.543  13.587  -4.307  1.00  0.00     0.074 A 
ATOM      6  C14 UNK     1      48.177  14.830  -4.321  1.00  0.00     0.071 A 
ENDROOT
BRANCH   1   7
ATOM      7  C4  UNK     1      49.640  11.671  -6.756  1.00  0.00     0.165 C 
ATOM      8  O1  UNK     1      49.071  11.379  -7.826  1.00  0.00    -0.292 OA
BRANCH   7   9
ATOM      9  C2  UNK     1      50.882  10.878  -6.316  1.00  0.00     0.088 C 
BRANCH   9  10
ATOM     10  C1  UNK     1      50.597   9.889  -5.184  1.00  0.00     0.046 C 
BRANCH  10  11
ATOM     11  C3  UNK     1      50.981  10.454  -3.841  1.00  0.00    -0.058 A 
ATOM     12  C6  UNK     1      50.035  10.510  -2.829  1.00  0.00     0.010 A 
ATOM     13  C12 UNK     1      50.391  11.033  -1.585  1.00  0.00     0.037 A 
ATOM     14  C15 UNK     1      51.690  11.495  -1.369  1.00  0.00     0.065 A 
ATOM     15  C13 UNK     1      52.632  11.433  -2.396  1.00  0.00     0.037 A 
ATOM     16  C7  UNK     1      52.276  10.910  -3.638  1.00  0.00     0.010 A 
BRANCH  14  17
ATOM     17  O5  UNK     1      52.037  12.003  -0.156  1.00  0.00    -0.361 OA
ATOM     18  H14 UNK     1      52.983  11.836  -0.002  1.00  0.00     0.217 HD
ENDBRANCH  14  17
ENDBRANCH  10  11
ENDBRANCH   9  10
ENDBRANCH   7   9
ENDBRANCH   1   7
BRANCH   2  19
ATOM     19  O2  UNK     1      50.861  14.220  -6.722  1.00  0.00    -0.360 OA
ATOM     20  H11 UNK     1      50.719  13.860  -7.612  1.00  0.00     0.217 HD
ENDBRANCH   2  19
BRANCH   3  21
ATOM     21  O3  UNK     1      47.389  11.344  -5.077  1.00  0.00    -0.360 OA
ATOM     22  H12 UNK     1      47.218  11.052  -5.990  1.00  0.00     0.217 HD
ENDBRANCH   3  21
BRANCH   6  23
ATOM     23  O4  UNK     1      47.709  15.842  -3.541  1.00  0.00    -0.361 OA
ATOM     24  H13 UNK     1      47.763  15.571  -2.608  1.00  0.00     0.217 HD
ENDBRANCH   6  23
TORSDOF 8
ENDMDL
MODEL 8
REMARK VINA RESULT:      -6.2      9.181     12.153
REMARK  8 active torsions:
REMARK  status: ('A' for Active; 'I' for Inactive)
REMARK    1  A    between atoms: O2_2  and  C8_13 
REMARK    2  A    between atoms: O3_3  and  C9_14 
REMARK    3  A    between atoms: O4_4  and  C14_19 
REMARK    4  A    between atoms: O5_5  and  C15_20 
REMARK    5  A    between atoms: C1_6  and  C2_7 
REMARK    6  A    between atoms: C1_6  and  C3_8 
REMARK    7  A    between atoms: C2_7  and  C4_9 
REMARK    8  A    between atoms: C4_9  and  C5_10 
ROOT
ATOM      1  C5  UNK     1      49.138  12.754  -5.928  1.00  0.00     0.076 A 
ATOM      2  C8  UNK     1      49.773  13.996  -5.940  1.00  0.00     0.085 A 
ATOM      3  C9  UNK     1      48.023  12.550  -5.116  1.00  0.00     0.085 A 
ATOM      4  C10 UNK     1      49.294  15.033  -5.140  1.00  0.00     0.074 A 
ATOM      5  C11 UNK     1      47.543  13.585  -4.315  1.00  0.00     0.074 A 
ATOM      6  C14 UNK     1      48.179  14.828  -4.327  1.00  0.00     0.071 A 
ENDROOT
BRANCH   1   7
ATOM      7  C4  UNK     1      49.640  11.671  -6.767  1.00  0.00     0.165 C 
ATOM      8  O1  UNK     1      49.075  11.385  -7.840  1.00  0.00    -0.292 OA
BRANCH   7   9
ATOM      9  C2  UNK     1      50.877  10.872  -6.323  1.00  0.00     0.088 C 
BRANCH   9  10
ATOM     10  C1  UNK     1      50.586   9.889  -5.187  1.00  0.00     0.046 C 
BRANCH  10  11
ATOM     11  C3  UNK     1      50.980  10.454  -3.847  1.00  0.00    -0.058 A 
ATOM     12  C6  UNK     1      52.275  10.907  -3.652  1.00  0.00     0.010 A 
ATOM     13  C12 UNK     1      52.640  11.431  -2.411  1.00  0.00     0.037 A 
ATOM     14  C15 UNK     1      51.704  11.494  -1.379  1.00  0.00     0.065 A 
ATOM     15  C13 UNK     1      50.403  11.034  -1.588  1.00  0.00     0.037 A 
ATOM     16  C7  UNK     1      50.039  10.512  -2.828  1.00  0.00     0.010 A 
BRANCH  14  17
ATOM     17  O5  UNK     1      52.059  12.006  -0.169  1.00  0.00    -0.361 OA
ATOM     18  H14 UNK     1      51.335  11.855   0.462  1.00  0.00     0.217 HD
ENDBRANCH  14  17
ENDBRANCH  10  11
ENDBRANCH   9  10
ENDBRANCH   7   9
ENDBRANCH   1   7
BRANCH   2  19
ATOM     19  O2  UNK     1      50.864  14.218  -6.727  1.00  0.00    -0.360 OA
ATOM     20  H11 UNK     1      51.399  13.412  -6.807  1.00  0.00     0.217 HD
ENDBRANCH   2  19
BRANCH   3  21
ATOM     21  O3  UNK     1      47.387  11.344  -5.090  1.00  0.00    -0.360 OA
ATOM     22  H12 UNK     1      47.403  10.995  -4.182  1.00  0.00     0.217 HD
ENDBRANCH   3  21
BRANCH   6  23
ATOM     23  O4  UNK     1      47.711  15.838  -3.545  1.00  0.00    -0.361 OA
ATOM     24  H13 UNK     1      47.387  16.555  -4.117  1.00  0.00     0.217 HD
ENDBRANCH   6  23
TORSDOF 8
ENDMDL
MODEL 9
REMARK VINA RESULT:      -6.2      9.178     12.056
REMARK  8 active torsions:
REMARK  status: ('A' for Active; 'I' for Inactive)
REMARK    1  A    between atoms: O2_2  and  C8_13 
REMARK    2  A    between atoms: O3_3  and  C9_14 
REMARK    3  A    between atoms: O4_4  and  C14_19 
REMARK    4  A    between atoms: O5_5  and  C15_20 
REMARK    5  A    between atoms: C1_6  and  C2_7 
REMARK    6  A    between atoms: C1_6  and  C3_8 
REMARK    7  A    between atoms: C2_7  and  C4_9 
REMARK    8  A    between atoms: C4_9  and  C5_10 
ROOT
ATOM      1  C5  UNK     1      49.139  12.756  -5.929  1.00  0.00     0.076 A 
ATOM      2  C8  UNK     1      48.024  12.550  -5.117  1.00  0.00     0.085 A 
ATOM      3  C9  UNK     1      49.774  13.998  -5.940  1.00  0.00     0.085 A 
ATOM      4  C10 UNK     1      47.543  13.587  -4.316  1.00  0.00     0.074 A 
ATOM      5  C11 UNK     1      49.294  15.034  -5.140  1.00  0.00     0.074 A 
ATOM      6  C14 UNK     1      48.178  14.829  -4.328  1.00  0.00     0.071 A 
ENDROOT
BRANCH   1   7
ATOM      7  C4  UNK     1      49.641  11.671  -6.765  1.00  0.00     0.165 C 
ATOM      8  O1  UNK     1      49.076  11.382  -7.837  1.00  0.00    -0.292 OA
BRANCH   7   9
ATOM      9  C2  UNK     1      50.879  10.873  -6.321  1.00  0.00     0.088 C 
BRANCH   9  10
ATOM     10  C1  UNK     1      50.587   9.889  -5.186  1.00  0.00     0.046 C 
BRANCH  10  11
ATOM     11  C3  UNK     1      50.978  10.454  -3.844  1.00  0.00    -0.058 A 
ATOM     12  C6  UNK     1      52.273  10.907  -3.646  1.00  0.00     0.010 A 
ATOM     13  C12 UNK     1      52.635  11.431  -2.405  1.00  0.00     0.037 A 
ATOM     14  C15 UNK     1      51.696  11.493  -1.374  1.00  0.00     0.065 A 
ATOM     15  C13 UNK     1      50.396  11.034  -1.587  1.00  0.00     0.037 A 
ATOM     16  C7  UNK     1      50.035  10.511  -2.828  1.00  0.00     0.010 A 
BRANCH  14  17
ATOM     17  O5  UNK     1      52.047  12.005  -0.164  1.00  0.00    -0.361 OA
ATOM     18  H14 UNK     1      52.439  11.298   0.376  1.00  0.00     0.217 HD
ENDBRANCH  14  17
ENDBRANCH  10  11
ENDBRANCH   9  10
ENDBRANCH   7   9
ENDBRANCH   1   7
BRANCH   2  19
ATOM     19  O2  UNK     1      47.389  11.345  -5.090  1.00  0.00    -0.360 OA
ATOM     20  H11 UNK     1      47.511  10.912  -4.230  1.00  0.00     0.217 HD
ENDBRANCH   2  19
BRANCH   3  21
ATOM     21  O3  UNK     1      50.866  14.220  -6.726  1.00  0.00    -0.360 OA
ATOM     22  H12 UNK     1      51.627  14.437  -6.160  1.00  0.00     0.217 HD
ENDBRANCH   3  21
BRANCH   6  23
ATOM     23  O4  UNK     1      47.709  15.840  -3.548  1.00  0.00    -0.361 OA
ATOM     24  H13 UNK     1      48.444  16.198  -3.021  1.00  0.00     0.217 HD
ENDBRANCH   6  23
TORSDOF 8
ENDMDL
MODEL 10
REMARK VINA RESULT:      -6.2      9.174     12.075
REMARK  8 active torsions:
REMARK  status: ('A' for Active; 'I' for Inactive)
REMARK    1  A    between atoms: O2_2  and  C8_13 
REMARK    2  A    between atoms: O3_3  and  C9_14 
REMARK    3  A    between atoms: O4_4  and  C14_19 
REMARK    4  A    between atoms: O5_5  and  C15_20 
REMARK    5  A    between atoms: C1_6  and  C2_7 
REMARK    6  A    between atoms: C1_6  and  C3_8 
REMARK    7  A    between atoms: C2_7  and  C4_9 
REMARK    8  A    between atoms: C4_9  and  C5_10 
ROOT
ATOM      1  C5  UNK     1      49.133  12.757  -5.922  1.00  0.00     0.076 A 
ATOM      2  C8  UNK     1      48.020  12.551  -5.106  1.00  0.00     0.085 A 
ATOM      3  C9  UNK     1      49.766  14.000  -5.936  1.00  0.00     0.085 A 
ATOM      4  C10 UNK     1      47.540  13.587  -4.306  1.00  0.00     0.074 A 
ATOM      5  C11 UNK     1      49.286  15.036  -5.136  1.00  0.00     0.074 A 
ATOM      6  C14 UNK     1      48.172  14.830  -4.321  1.00  0.00     0.071 A 
ENDROOT
BRANCH   1   7
ATOM      7  C4  UNK     1      49.635  11.672  -6.757  1.00  0.00     0.165 C 
ATOM      8  O1  UNK     1      49.066  11.379  -7.827  1.00  0.00    -0.292 OA
BRANCH   7   9
ATOM      9  C2  UNK     1      50.876  10.878  -6.317  1.00  0.00     0.088 C 
BRANCH   9  10
ATOM     10  C1  UNK     1      50.591   9.891  -5.183  1.00  0.00     0.046 C 
BRANCH  10  11
ATOM     11  C3  UNK     1      50.979  10.457  -3.841  1.00  0.00    -0.058 A 
ATOM     12  C6  UNK     1      50.037  10.513  -2.826  1.00  0.00     0.010 A 
ATOM     13  C12 UNK     1      50.396  11.037  -1.583  1.00  0.00     0.037 A 
ATOM     14  C15 UNK     1      51.696  11.500  -1.372  1.00  0.00     0.065 A 
ATOM     15  C13 UNK     1      52.634  11.439  -2.402  1.00  0.00     0.037 A 
ATOM     16  C7  UNK     1      52.274  10.914  -3.643  1.00  0.00     0.010 A 
BRANCH  14  17
ATOM     17  O5  UNK     1      52.047  12.009  -0.160  1.00  0.00    -0.361 OA
ATOM     18  H14 UNK     1      51.478  12.773   0.038  1.00  0.00     0.217 HD
ENDBRANCH  14  17
ENDBRANCH  10  11
ENDBRANCH   9  10
ENDBRANCH   7   9
ENDBRANCH   1   7
BRANCH   2  19
ATOM     19  O2  UNK     1      47.387  11.344  -5.076  1.00  0.00    -0.360 OA
ATOM     20  H11 UNK     1      46.903  11.231  -4.242  1.00  0.00     0.217 HD
ENDBRANCH   2  19
BRANCH   3  21
ATOM     21  O3  UNK     1      50.855  14.222  -6.725  1.00  0.00    -0.360 OA
ATOM     22  H12 UNK     1      51.661  14.136  -6.187  1.00  0.00     0.217 HD
ENDBRANCH   3  21
BRANCH   6  23
ATOM     23  O4  UNK     1      47.704  15.842  -3.541  1.00  0.00    -0.361 OA
ATOM     24  H13 UNK     1      48.446  16.422  -3.297  1.00  0.00     0.217 HD
ENDBRANCH   6  23
TORSDOF 8
ENDMDL
MODEL 11
REMARK VINA RESULT:      -6.1      9.111     11.638
REMARK  8 active torsions:
REMARK  status: ('A' for Active; 'I' for Inactive)
REMARK    1  A    between atoms: O2_2  and  C8_13 
REMARK    2  A    between atoms: O3_3  and  C9_14 
REMARK    3  A    between atoms: O4_4  and  C14_19 
REMARK    4  A    between atoms: O5_5  and  C15_20 
REMARK    5  A    between atoms: C1_6  and  C2_7 
REMARK    6  A    between atoms: C1_6  and  C3_8 
REMARK    7  A    between atoms: C2_7  and  C4_9 
REMARK    8  A    between atoms: C4_9  and  C5_10 
ROOT
ATOM      1  C5  UNK     1      49.183  12.785  -5.956  1.00  0.00     0.076 A 
ATOM      2  C8  UNK     1      49.747  14.060  -6.016  1.00  0.00     0.085 A 
ATOM      3  C9  UNK     1      48.136  12.527  -5.071  1.00  0.00     0.085 A 
ATOM      4  C10 UNK     1      49.265  15.075  -5.191  1.00  0.00     0.074 A 
ATOM      5  C11 UNK     1      47.654  13.542  -4.246  1.00  0.00     0.074 A 
ATOM      6  C14 UNK     1      48.218  14.817  -4.305  1.00  0.00     0.071 A 
ENDROOT
BRANCH   1   7
ATOM      7  C4  UNK     1      49.687  11.724  -6.820  1.00  0.00     0.165 C 
ATOM      8  O1  UNK     1      50.700  11.071  -6.499  1.00  0.00    -0.292 OA
BRANCH   7   9
ATOM      9  C2  UNK     1      48.967  11.406  -8.141  1.00  0.00     0.088 C 
BRANCH   9  10
ATOM     10  C1  UNK     1      48.335  10.013  -8.165  1.00  0.00     0.046 C 
BRANCH  10  11
ATOM     11  C3  UNK     1      46.862  10.075  -8.474  1.00  0.00    -0.058 A 
ATOM     12  C6  UNK     1      46.251   9.001  -9.103  1.00  0.00     0.010 A 
ATOM     13  C12 UNK     1      44.886   9.058  -9.388  1.00  0.00     0.037 A 
ATOM     14  C15 UNK     1      44.149  10.191  -9.044  1.00  0.00     0.065 A 
ATOM     15  C13 UNK     1      44.776  11.266  -8.412  1.00  0.00     0.037 A 
ATOM     16  C7  UNK     1      46.139  11.207  -8.126  1.00  0.00     0.010 A 
BRANCH  14  17
ATOM     17  O5  UNK     1      42.818  10.247  -9.321  1.00  0.00    -0.361 OA
ATOM     18  H14 UNK     1      42.365  10.719  -8.602  1.00  0.00     0.217 HD
ENDBRANCH  14  17
ENDBRANCH  10  11
ENDBRANCH   9  10
ENDBRANCH   7   9
ENDBRANCH   1   7
BRANCH   2  19
ATOM     19  O2  UNK     1      50.770  14.334  -6.874  1.00  0.00    -0.360 OA
ATOM     20  H11 UNK     1      51.537  13.770  -6.684  1.00  0.00     0.217 HD
ENDBRANCH   2  19
BRANCH   3  21
ATOM     21  O3  UNK     1      47.570  11.289  -4.997  1.00  0.00    -0.360 OA
ATOM     22  H12 UNK     1      46.623  11.359  -5.209  1.00  0.00     0.217 HD
ENDBRANCH   3  21
BRANCH   6  23
ATOM     23  O4  UNK     1      47.748  15.808  -3.500  1.00  0.00    -0.361 OA
ATOM     24  H13 UNK     1      47.898  16.665  -3.934  1.00  0.00     0.217 HD
ENDBRANCH   6  23
TORSDOF 8
ENDMDL
MODEL 12
REMARK VINA RESULT:      -6.1      9.092     11.595
REMARK  8 active torsions:
REMARK  status: ('A' for Active; 'I' for Inactive)
REMARK    1  A    between atoms: O2_2  and  C8_13 
REMARK    2  A    between atoms: O3_3  and  C9_14 
REMARK    3  A    between atoms: O4_4  and  C14_19 
REMARK    4  A    between atoms: O5_5  and  C15_20 
REMARK    5  A    between atoms: C1_6  and  C2_7 
REMARK    6  A    between atoms: C1_6  and  C3_8 
REMARK    7  A    between atoms: C2_7  and  C4_9 
REMARK    8  A    between atoms: C4_9  and  C5_10 
ROOT
ATOM      1  C5  UNK     1      49.169  12.799  -5.954  1.00  0.00     0.076 A 
ATOM      2  C8  UNK     1      49.731  14.075  -6.009  1.00  0.00     0.085 A 
ATOM      3  C9  UNK     1      48.119  12.538  -5.074  1.00  0.00     0.085 A 
ATOM      4  C10 UNK     1      49.244  15.088  -5.184  1.00  0.00     0.074 A 
ATOM      5  C11 UNK     1      47.632  13.550  -4.249  1.00  0.00     0.074 A 
ATOM      6  C14 UNK     1      48.194  14.826  -4.303  1.00  0.00     0.071 A 
ENDROOT
BRANCH   1   7
ATOM      7  C4  UNK     1      49.679  11.741  -6.818  1.00  0.00     0.165 C 
ATOM      8  O1  UNK     1      50.698  11.097  -6.500  1.00  0.00    -0.292 OA
BRANCH   7   9
ATOM      9  C2  UNK     1      48.957  11.415  -8.136  1.00  0.00     0.088 C 
BRANCH   9  10
ATOM     10  C1  UNK     1      48.314  10.026  -8.146  1.00  0.00     0.046 C 
BRANCH  10  11
ATOM     11  C3  UNK     1      46.843  10.095  -8.467  1.00  0.00    -0.058 A 
ATOM     12  C6  UNK     1      46.119  11.223  -8.109  1.00  0.00     0.010 A 
ATOM     13  C12 UNK     1      44.758  11.287  -8.407  1.00  0.00     0.037 A 
ATOM     14  C15 UNK     1      44.135  10.221  -9.057  1.00  0.00     0.065 A 
ATOM     15  C13 UNK     1      44.874   9.092  -9.411  1.00  0.00     0.037 A 
ATOM     16  C7  UNK     1      46.236   9.029  -9.114  1.00  0.00     0.010 A 
BRANCH  14  17
ATOM     17  O5  UNK     1      42.808  10.284  -9.348  1.00  0.00    -0.361 OA
ATOM     18  H14 UNK     1      42.426   9.393  -9.278  1.00  0.00     0.217 HD
ENDBRANCH  14  17
ENDBRANCH  10  11
ENDBRANCH   9  10
ENDBRANCH   7   9
ENDBRANCH   1   7
BRANCH   2  19
ATOM     19  O2  UNK     1      50.757  14.353  -6.863  1.00  0.00    -0.360 OA
ATOM     20  H11 UNK     1      51.520  13.782  -6.678  1.00  0.00     0.217 HD
ENDBRANCH   2  19
BRANCH   3  21
ATOM     21  O3  UNK     1      47.555  11.298  -5.005  1.00  0.00    -0.360 OA
ATOM     22  H12 UNK     1      47.555  11.000  -4.079  1.00  0.00     0.217 HD
ENDBRANCH   3  21
BRANCH   6  23
ATOM     23  O4  UNK     1      47.719  15.814  -3.498  1.00  0.00    -0.361 OA
ATOM     24  H13 UNK     1      47.757  15.513  -2.574  1.00  0.00     0.217 HD
ENDBRANCH   6  23
TORSDOF 8
ENDMDL
MODEL 13
REMARK VINA RESULT:      -6.1      9.094     11.503
REMARK  8 active torsions:
REMARK  status: ('A' for Active; 'I' for Inactive)
REMARK    1  A    between atoms: O2_2  and  C8_13 
REMARK    2  A    between atoms: O3_3  and  C9_14 
REMARK    3  A    between atoms: O4_4  and  C14_19 
REMARK    4  A    between atoms: O5_5  and  C15_20 
REMARK    5  A    between atoms: C1_6  and  C2_7 
REMARK    6  A    between atoms: C1_6  and  C3_8 
REMARK    7  A    between atoms: C2_7  and  C4_9 
REMARK    8  A    between atoms: C4_9  and  C5_10 
ROOT
ATOM      1  C5  UNK     1      49.169  12.800  -5.956  1.00  0.00     0.076 A 
ATOM      2  C8  UNK     1      48.119  12.541  -5.076  1.00  0.00     0.085 A 
ATOM      3  C9  UNK     1      49.733  14.075  -6.012  1.00  0.00     0.085 A 
ATOM      4  C10 UNK     1      47.633  13.555  -4.251  1.00  0.00     0.074 A 
ATOM      5  C11 UNK     1      49.248  15.089  -5.188  1.00  0.00     0.074 A 
ATOM      6  C14 UNK     1      48.197  14.830  -4.307  1.00  0.00     0.071 A 
ENDROOT
BRANCH   1   7
ATOM      7  C4  UNK     1      49.677  11.738  -6.817  1.00  0.00     0.165 C 
ATOM      8  O1  UNK     1      50.693  11.092  -6.497  1.00  0.00    -0.292 OA
BRANCH   7   9
ATOM      9  C2  UNK     1      48.955  11.412  -8.136  1.00  0.00     0.088 C 
BRANCH   9  10
ATOM     10  C1  UNK     1      48.312  10.024  -8.146  1.00  0.00     0.046 C 
BRANCH  10  11
ATOM     11  C3  UNK     1      46.841  10.093  -8.465  1.00  0.00    -0.058 A 
ATOM     12  C6  UNK     1      46.119  11.222  -8.112  1.00  0.00     0.010 A 
ATOM     13  C12 UNK     1      44.757  11.286  -8.408  1.00  0.00     0.037 A 
ATOM     14  C15 UNK     1      44.133  10.218  -9.054  1.00  0.00     0.065 A 
ATOM     15  C13 UNK     1      44.871   9.087  -9.404  1.00  0.00     0.037 A 
ATOM     16  C7  UNK     1      46.233   9.024  -9.108  1.00  0.00     0.010 A 
BRANCH  14  17
ATOM     17  O5  UNK     1      42.805  10.281  -9.344  1.00  0.00    -0.361 OA
ATOM     18  H14 UNK     1      42.336   9.608  -8.823  1.00  0.00     0.217 HD
ENDBRANCH  14  17
ENDBRANCH  10  11
ENDBRANCH   9  10
ENDBRANCH   7   9
ENDBRANCH   1   7
BRANCH   2  19
ATOM     19  O2  UNK     1      47.553  11.303  -5.005  1.00  0.00    -0.360 OA
ATOM     20  H11 UNK     1      47.948  10.707  -5.661  1.00  0.00     0.217 HD
ENDBRANCH   2  19
BRANCH   3  21
ATOM     21  O3  UNK     1      50.761  14.349  -6.865  1.00  0.00    -0.360 OA
ATOM     22  H12 UNK     1      51.464  14.812  -6.377  1.00  0.00     0.217 HD
ENDBRANCH   3  21
BRANCH   6  23
ATOM     23  O4  UNK     1      47.723  15.820  -3.503  1.00  0.00    -0.361 OA
ATOM     24  H13 UNK     1      47.425  16.561  -4.059  1.00  0.00     0.217 HD
ENDBRANCH   6  23
TORSDOF 8
ENDMDL
MODEL 14
REMARK VINA RESULT:      -6.1      9.110     11.532
REMARK  8 active torsions:
REMARK  status: ('A' for Active; 'I' for Inactive)
REMARK    1  A    between atoms: O2_2  and  C8_13 
REMARK    2  A    between atoms: O3_3  and  C9_14 
REMARK    3  A    between atoms: O4_4  and  C14_19 
REMARK    4  A    between atoms: O5_5  and  C15_20 
REMARK    5  A    between atoms: C1_6  and  C2_7 
REMARK    6  A    between atoms: C1_6  and  C3_8 
REMARK    7  A    between atoms: C2_7  and  C4_9 
REMARK    8  A    between atoms: C4_9  and  C5_10 
ROOT
ATOM      1  C5  UNK     1      49.181  12.786  -5.957  1.00  0.00     0.076 A 
ATOM      2  C8  UNK     1      48.134  12.529  -5.072  1.00  0.00     0.085 A 
ATOM      3  C9  UNK     1      49.746  14.060  -6.016  1.00  0.00     0.085 A 
ATOM      4  C10 UNK     1      47.652  13.545  -4.247  1.00  0.00     0.074 A 
ATOM      5  C11 UNK     1      49.266  15.076  -5.191  1.00  0.00     0.074 A 
ATOM      6  C14 UNK     1      48.218  14.818  -4.306  1.00  0.00     0.071 A 
ENDROOT
BRANCH   1   7
ATOM      7  C4  UNK     1      49.684  11.723  -6.820  1.00  0.00     0.165 C 
ATOM      8  O1  UNK     1      50.696  11.071  -6.499  1.00  0.00    -0.292 OA
BRANCH   7   9
ATOM      9  C2  UNK     1      48.962  11.403  -8.140  1.00  0.00     0.088 C 
BRANCH   9  10
ATOM     10  C1  UNK     1      48.315  10.016  -8.154  1.00  0.00     0.046 C 
BRANCH  10  11
ATOM     11  C3  UNK     1      46.843  10.092  -8.469  1.00  0.00    -0.058 A 
ATOM     12  C6  UNK     1      46.226   9.024  -9.103  1.00  0.00     0.010 A 
ATOM     13  C12 UNK     1      44.864   9.094  -9.395  1.00  0.00     0.037 A 
ATOM     14  C15 UNK     1      44.134  10.232  -9.051  1.00  0.00     0.065 A 
ATOM     15  C13 UNK     1      44.767  11.300  -8.414  1.00  0.00     0.037 A 
ATOM     16  C7  UNK     1      46.129  11.229  -8.121  1.00  0.00     0.010 A 
BRANCH  14  17
ATOM     17  O5  UNK     1      42.805  10.300  -9.334  1.00  0.00    -0.361 OA
ATOM     18  H14 UNK     1      42.379   9.475  -9.047  1.00  0.00     0.217 HD
ENDBRANCH  14  17
ENDBRANCH  10  11
ENDBRANCH   9  10
ENDBRANCH   7   9
ENDBRANCH   1   7
BRANCH   2  19
ATOM     19  O2  UNK     1      47.566  11.291  -4.998  1.00  0.00    -0.360 OA
ATOM     20  H11 UNK     1      48.220  10.602  -5.199  1.00  0.00     0.217 HD
ENDBRANCH   2  19
BRANCH   3  21
ATOM     21  O3  UNK     1      50.771  14.332  -6.874  1.00  0.00    -0.360 OA
ATOM     22  H12 UNK     1      50.469  14.980  -7.534  1.00  0.00     0.217 HD
ENDBRANCH   3  21
BRANCH   6  23
ATOM     23  O4  UNK     1      47.748  15.810  -3.502  1.00  0.00    -0.361 OA
ATOM     24  H13 UNK     1      48.424  16.022  -2.835  1.00  0.00     0.217 HD
ENDBRANCH   6  23
TORSDOF 8
ENDMDL
MODEL 15
REMARK VINA RESULT:      -5.9      9.330     11.556
REMARK  8 active torsions:
REMARK  status: ('A' for Active; 'I' for Inactive)
REMARK    1  A    between atoms: O2_2  and  C8_13 
REMARK    2  A    between atoms: O3_3  and  C9_14 
REMARK    3  A    between atoms: O4_4  and  C14_19 
REMARK    4  A    between atoms: O5_5  and  C15_20 
REMARK    5  A    between atoms: C1_6  and  C2_7 
REMARK    6  A    between atoms: C1_6  and  C3_8 
REMARK    7  A    between atoms: C2_7  and  C4_9 
REMARK    8  A    between atoms: C4_9  and  C5_10 
ROOT
ATOM      1  C5  UNK     1      50.616  10.529  -5.653  1.00  0.00     0.076 A 
ATOM      2  C8  UNK     1      51.672  11.351  -5.262  1.00  0.00     0.085 A 
ATOM      3  C9  UNK     1      49.751  10.002  -4.694  1.00  0.00     0.085 A 
ATOM      4  C10 UNK     1      51.864  11.646  -3.912  1.00  0.00     0.074 A 
ATOM      5  C11 UNK     1      49.941  10.297  -3.345  1.00  0.00     0.074 A 
ATOM      6  C14 UNK     1      50.999  11.119  -2.953  1.00  0.00     0.071 A 
ENDROOT
BRANCH   1   7
ATOM      7  C4  UNK     1      50.416  10.221  -7.065  1.00  0.00     0.165 C 
ATOM      8  O1  UNK     1      50.616   9.070  -7.498  1.00  0.00    -0.292 OA
BRANCH   7   9
ATOM      9  C2  UNK     1      49.958  11.326  -8.031  1.00  0.00     0.088 C 
BRANCH   9  10
ATOM     10  C1  UNK     1      48.531  11.809  -7.764  1.00  0.00     0.046 C 
BRANCH  10  11
ATOM     11  C3  UNK     1      48.468  12.729  -6.572  1.00  0.00    -0.058 A 
ATOM     12  C6  UNK     1      49.274  13.857  -6.537  1.00  0.00     0.010 A 
ATOM     13  C12 UNK     1      49.215  14.709  -5.434  1.00  0.00     0.037 A 
ATOM     14  C15 UNK     1      48.351  14.421  -4.376  1.00  0.00     0.065 A 
ATOM     15  C13 UNK     1      47.546  13.282  -4.423  1.00  0.00     0.037 A 
ATOM     16  C7  UNK     1      47.605  12.432  -5.527  1.00  0.00     0.010 A 
BRANCH  14  17
ATOM     17  O5  UNK     1      48.293  15.252  -3.301  1.00  0.00    -0.361 OA
ATOM     18  H14 UNK     1      48.793  14.855  -2.568  1.00  0.00     0.217 HD
ENDBRANCH  14  17
ENDBRANCH  10  11
ENDBRANCH   9  10
ENDBRANCH   7   9
ENDBRANCH   1   7
BRANCH   2  19
ATOM     19  O2  UNK     1      52.530  11.877  -6.182  1.00  0.00    -0.360 OA
ATOM     20  H11 UNK     1      52.987  12.653  -5.820  1.00  0.00     0.217 HD
ENDBRANCH   2  19
BRANCH   3  21
ATOM     21  O3  UNK     1      48.711   9.197  -5.055  1.00  0.00    -0.360 OA
ATOM     22  H12 UNK     1      47.943   9.750  -5.280  1.00  0.00     0.217 HD
ENDBRANCH   3  21
BRANCH   6  23
ATOM     23  O4  UNK     1      51.185  11.406  -1.636  1.00  0.00    -0.361 OA
ATOM     24  H13 UNK     1      51.658  12.254  -1.562  1.00  0.00     0.217 HD
ENDBRANCH   6  23
TORSDOF 8
ENDMDL
MODEL 16
REMARK VINA RESULT:      -5.9      9.327     11.438
REMARK  8 active torsions:
REMARK  status: ('A' for Active; 'I' for Inactive)
REMARK    1  A    between atoms: O2_2  and  C8_13 
REMARK    2  A    between atoms: O3_3  and  C9_14 
REMARK    3  A    between atoms: O4_4  and  C14_19 
REMARK    4  A    between atoms: O5_5  and  C15_20 
REMARK    5  A    between atoms: C1_6  and  C2_7 
REMARK    6  A    between atoms: C1_6  and  C3_8 
REMARK    7  A    between atoms: C2_7  and  C4_9 
REMARK    8  A    between atoms: C4_9  and  C5_10 
ROOT
ATOM      1  C5  UNK     1      50.591  10.533  -5.667  1.00  0.00     0.076 A 
ATOM      2  C8  UNK     1      49.730   9.998  -4.709  1.00  0.00     0.085 A 
ATOM      3  C9  UNK     1      51.639  11.366  -5.275  1.00  0.00     0.085 A 
ATOM      4  C10 UNK     1      49.917  10.296  -3.359  1.00  0.00     0.074 A 
ATOM      5  C11 UNK     1      51.827  11.663  -3.925  1.00  0.00     0.074 A 
ATOM      6  C14 UNK     1      50.965  11.128  -2.967  1.00  0.00     0.071 A 
ENDROOT
BRANCH   1   7
ATOM      7  C4  UNK     1      50.395  10.221  -7.078  1.00  0.00     0.165 C 
ATOM      8  O1  UNK     1      50.604   9.070  -7.509  1.00  0.00    -0.292 OA
BRANCH   7   9
ATOM      9  C2  UNK     1      49.930  11.321  -8.047  1.00  0.00     0.088 C 
BRANCH   9  10
ATOM     10  C1  UNK     1      48.505  11.805  -7.772  1.00  0.00     0.046 C 
BRANCH  10  11
ATOM     11  C3  UNK     1      48.450  12.727  -6.581  1.00  0.00    -0.058 A 
ATOM     12  C6  UNK     1      49.249  13.860  -6.559  1.00  0.00     0.010 A 
ATOM     13  C12 UNK     1      49.198  14.714  -5.456  1.00  0.00     0.037 A 
ATOM     14  C15 UNK     1      48.348  14.423  -4.388  1.00  0.00     0.065 A 
ATOM     15  C13 UNK     1      47.550  13.279  -4.423  1.00  0.00     0.037 A 
ATOM     16  C7  UNK     1      47.601  12.427  -5.526  1.00  0.00     0.010 A 
BRANCH  14  17
ATOM     17  O5  UNK     1      48.297  15.256  -3.314  1.00  0.00    -0.361 OA
ATOM     18  H14 UNK     1      47.902  16.101  -3.588  1.00  0.00     0.217 HD
ENDBRANCH  14  17
ENDBRANCH  10  11
ENDBRANCH   9  10
ENDBRANCH   7   9
ENDBRANCH   1   7
BRANCH   2  19
ATOM     19  O2  UNK     1      48.700   9.182  -5.070  1.00  0.00    -0.360 OA
ATOM     20  H11 UNK     1      48.989   8.256  -5.095  1.00  0.00     0.217 HD
ENDBRANCH   2  19
BRANCH   3  21
ATOM     21  O3  UNK     1      52.493  11.898  -6.195  1.00  0.00    -0.360 OA
ATOM     22  H12 UNK     1      53.035  11.186  -6.576  1.00  0.00     0.217 HD
ENDBRANCH   3  21
BRANCH   6  23
ATOM     23  O4  UNK     1      51.147  11.419  -1.650  1.00  0.00    -0.361 OA
ATOM     24  H13 UNK     1      52.098  11.538  -1.483  1.00  0.00     0.217 HD
ENDBRANCH   6  23
TORSDOF 8
ENDMDL
MODEL 17
REMARK VINA RESULT:      -5.7      9.601     10.796
REMARK  8 active torsions:
REMARK  status: ('A' for Active; 'I' for Inactive)
REMARK    1  A    between atoms: O2_2  and  C8_13 
REMARK    2  A    between atoms: O3_3  and  C9_14 
REMARK    3  A    between atoms: O4_4  and  C14_19 
REMARK    4  A    between atoms: O5_5  and  C15_20 
REMARK    5  A    between atoms: C1_6  and  C2_7 
REMARK    6  A    between atoms: C1_6  and  C3_8 
REMARK    7  A    between atoms: C2_7  and  C4_9 
REMARK    8  A    between atoms: C4_9  and  C5_10 
ROOT
ATOM      1  C5  UNK     1      44.628  10.501  -9.972  1.00  0.00     0.076 A 
ATOM      2  C8  UNK     1      43.733  11.065 -10.881  1.00  0.00     0.085 A 
ATOM      3  C9  UNK     1      44.294   9.322  -9.305  1.00  0.00     0.085 A 
ATOM      4  C10 UNK     1      42.505  10.450 -11.123  1.00  0.00     0.074 A 
ATOM      5  C11 UNK     1      43.067   8.706  -9.548  1.00  0.00     0.074 A 
ATOM      6  C14 UNK     1      42.171   9.271 -10.457  1.00  0.00     0.071 A 
ENDROOT
BRANCH   1   7
ATOM      7  C4  UNK     1      45.912  11.145  -9.719  1.00  0.00     0.165 C 
ATOM      8  O1  UNK     1      46.820  11.107 -10.572  1.00  0.00    -0.292 OA
BRANCH   7   9
ATOM      9  C2  UNK     1      46.153  11.874  -8.387  1.00  0.00     0.088 C 
BRANCH   9  10
ATOM     10  C1  UNK     1      47.409  11.397  -7.655  1.00  0.00     0.046 C 
BRANCH  10  11
ATOM     11  C3  UNK     1      47.760  12.302  -6.502  1.00  0.00    -0.058 A 
ATOM     12  C6  UNK     1      48.320  13.545  -6.757  1.00  0.00     0.010 A 
ATOM     13  C12 UNK     1      48.645  14.383  -5.690  1.00  0.00     0.037 A 
ATOM     14  C15 UNK     1      48.407  13.968  -4.379  1.00  0.00     0.065 A 
ATOM     15  C13 UNK     1      47.843  12.715  -4.136  1.00  0.00     0.037 A 
ATOM     16  C7  UNK     1      47.518  11.878  -5.203  1.00  0.00     0.010 A 
BRANCH  14  17
ATOM     17  O5  UNK     1      48.722  14.786  -3.339  1.00  0.00    -0.361 OA
ATOM     18  H14 UNK     1      48.437  15.690  -3.552  1.00  0.00     0.217 HD
ENDBRANCH  14  17
ENDBRANCH  10  11
ENDBRANCH   9  10
ENDBRANCH   7   9
ENDBRANCH   1   7
BRANCH   2  19
ATOM     19  O2  UNK     1      44.039  12.216 -11.543  1.00  0.00    -0.360 OA
ATOM     20  H11 UNK     1      43.264  12.799 -11.592  1.00  0.00     0.217 HD
ENDBRANCH   2  19
BRANCH   3  21
ATOM     21  O3  UNK     1      45.155   8.754  -8.413  1.00  0.00    -0.360 OA
ATOM     22  H12 UNK     1      45.621   9.457  -7.928  1.00  0.00     0.217 HD
ENDBRANCH   3  21
BRANCH   6  23
ATOM     23  O4  UNK     1      40.973   8.671 -10.693  1.00  0.00    -0.361 OA
ATOM     24  H13 UNK     1      40.700   8.861 -11.607  1.00  0.00     0.217 HD
ENDBRANCH   6  23
TORSDOF 8
ENDMDL
MODEL 18
REMARK VINA RESULT:      -5.7      9.601     10.850
REMARK  8 active torsions:
REMARK  status: ('A' for Active; 'I' for Inactive)
REMARK    1  A    between atoms: O2_2  and  C8_13 
REMARK    2  A    between atoms: O3_3  and  C9_14 
REMARK    3  A    between atoms: O4_4  and  C14_19 
REMARK    4  A    between atoms: O5_5  and  C15_20 
REMARK    5  A    between atoms: C1_6  and  C2_7 
REMARK    6  A    between atoms: C1_6  and  C3_8 
REMARK    7  A    between atoms: C2_7  and  C4_9 
REMARK    8  A    between atoms: C4_9  and  C5_10 
ROOT
ATOM      1  C5  UNK     1      44.672  10.464 -10.004  1.00  0.00     0.076 A 
ATOM      2  C8  UNK     1      44.338   9.302  -9.308  1.00  0.00     0.085 A 
ATOM      3  C9  UNK     1      43.774  11.009 -10.922  1.00  0.00     0.085 A 
ATOM      4  C10 UNK     1      43.107   8.686  -9.530  1.00  0.00     0.074 A 
ATOM      5  C11 UNK     1      42.543  10.394 -11.144  1.00  0.00     0.074 A 
ATOM      6  C14 UNK     1      42.209   9.231 -10.448  1.00  0.00     0.071 A 
ENDROOT
BRANCH   1   7
ATOM      7  C4  UNK     1      45.959  11.109  -9.770  1.00  0.00     0.165 C 
ATOM      8  O1  UNK     1      46.864  11.049 -10.625  1.00  0.00    -0.292 OA
BRANCH   7   9
ATOM      9  C2  UNK     1      46.207  11.868  -8.456  1.00  0.00     0.088 C 
BRANCH   9  10
ATOM     10  C1  UNK     1      47.461  11.399  -7.714  1.00  0.00     0.046 C 
BRANCH  10  11
ATOM     11  C3  UNK     1      47.790  12.299  -6.551  1.00  0.00    -0.058 A 
ATOM     12  C6  UNK     1      48.353  13.543  -6.791  1.00  0.00     0.010 A 
ATOM     13  C12 UNK     1      48.657  14.377  -5.714  1.00  0.00     0.037 A 
ATOM     14  C15 UNK     1      48.396  13.955  -4.410  1.00  0.00     0.065 A 
ATOM     15  C13 UNK     1      47.829  12.701  -4.183  1.00  0.00     0.037 A 
ATOM     16  C7  UNK     1      47.524  11.868  -5.259  1.00  0.00     0.010 A 
BRANCH  14  17
ATOM     17  O5  UNK     1      48.691  14.769  -3.360  1.00  0.00    -0.361 OA
ATOM     18  H14 UNK     1      48.149  15.573  -3.422  1.00  0.00     0.217 HD
ENDBRANCH  14  17
ENDBRANCH  10  11
ENDBRANCH   9  10
ENDBRANCH   7   9
ENDBRANCH   1   7
BRANCH   2  19
ATOM     19  O2  UNK     1      45.200   8.753  -8.406  1.00  0.00    -0.360 OA
ATOM     20  H11 UNK     1      45.062   7.794  -8.340  1.00  0.00     0.217 HD
ENDBRANCH   2  19
BRANCH   3  21
ATOM     21  O3  UNK     1      44.080  12.145 -11.612  1.00  0.00    -0.360 OA
ATOM     22  H12 UNK     1      43.834  12.919 -11.076  1.00  0.00     0.217 HD
ENDBRANCH   3  21
BRANCH   6  23
ATOM     23  O4  UNK     1      41.008   8.629 -10.666  1.00  0.00    -0.361 OA
ATOM     24  H13 UNK     1      41.157   7.686 -10.853  1.00  0.00     0.217 HD
ENDBRANCH   6  23
TORSDOF 8
ENDMDL
MODEL 19
REMARK VINA RESULT:      -5.6      9.888     11.822
REMARK  8 active torsions:
REMARK  status: ('A' for Active; 'I' for Inactive)
REMARK    1  A    between atoms: O2_2  and  C8_13 
REMARK    2  A    between atoms: O3_3  and  C9_14 
REMARK    3  A    between atoms: O4_4  and  C14_19 
REMARK    4  A    between atoms: O5_5  and  C15_20 
REMARK    5  A    between atoms: C1_6  and  C2_7 
REMARK    6  A    between atoms: C1_6  and  C3_8 
REMARK    7  A    between atoms: C2_7  and  C4_9 
REMARK    8  A    between atoms: C4_9  and  C5_10 
ROOT
ATOM      1  C5  UNK     1      49.549  11.746  -4.819  1.00  0.00     0.076 A 
ATOM      2  C8  UNK     1      49.629  10.353  -4.809  1.00  0.00     0.085 A 
ATOM      3  C9  UNK     1      50.707  12.511  -4.678  1.00  0.00     0.085 A 
ATOM      4  C10 UNK     1      50.865   9.726  -4.658  1.00  0.00     0.074 A 
ATOM      5  C11 UNK     1      51.943  11.885  -4.527  1.00  0.00     0.074 A 
ATOM      6  C14 UNK     1      52.023  10.491  -4.517  1.00  0.00     0.071 A 
ENDROOT
BRANCH   1   7
ATOM      7  C4  UNK     1      48.255  12.400  -4.977  1.00  0.00     0.165 C 
ATOM      8  O1  UNK     1      47.431  12.413  -4.043  1.00  0.00    -0.292 OA
BRANCH   7   9
ATOM      9  C2  UNK     1      47.901  13.080  -6.310  1.00  0.00     0.088 C 
BRANCH   9  10
ATOM     10  C1  UNK     1      48.311  12.260  -7.535  1.00  0.00     0.046 C 
BRANCH  10  11
ATOM     11  C3  UNK     1      47.227  11.299  -7.951  1.00  0.00    -0.058 A 
ATOM     12  C6  UNK     1      47.572  10.028  -8.384  1.00  0.00     0.010 A 
ATOM     13  C12 UNK     1      46.568   9.139  -8.768  1.00  0.00     0.037 A 
ATOM     14  C15 UNK     1      45.230   9.532  -8.717  1.00  0.00     0.065 A 
ATOM     15  C13 UNK     1      44.896  10.814  -8.279  1.00  0.00     0.037 A 
ATOM     16  C7  UNK     1      45.900  11.703  -7.894  1.00  0.00     0.010 A 
BRANCH  14  17
ATOM     17  O5  UNK     1      44.251   8.664  -9.090  1.00  0.00    -0.361 OA
ATOM     18  H14 UNK     1      43.772   9.037  -9.850  1.00  0.00     0.217 HD
ENDBRANCH  14  17
ENDBRANCH  10  11
ENDBRANCH   9  10
ENDBRANCH   7   9
ENDBRANCH   1   7
BRANCH   2  19
ATOM     19  O2  UNK     1      48.510   9.586  -4.945  1.00  0.00    -0.360 OA
ATOM     20  H11 UNK     1      48.607   8.967  -5.686  1.00  0.00     0.217 HD
ENDBRANCH   2  19
BRANCH   3  21
ATOM     21  O3  UNK     1      50.651  13.873  -4.686  1.00  0.00    -0.360 OA
ATOM     22  H12 UNK     1      51.556  14.228  -4.728  1.00  0.00     0.217 HD
ENDBRANCH   3  21
BRANCH   6  23
ATOM     23  O4  UNK     1      53.229   9.880  -4.369  1.00  0.00    -0.361 OA
ATOM     24  H13 UNK     1      53.171   8.977  -4.726  1.00  0.00     0.217 HD
ENDBRANCH   6  23
TORSDOF 8
ENDMDL
MODEL 20
REMARK VINA RESULT:      -5.6      9.900     11.834
REMARK  8 active torsions:
REMARK  status: ('A' for Active; 'I' for Inactive)
REMARK    1  A    between atoms: O2_2  and  C8_13 
REMARK    2  A    between atoms: O3_3  and  C9_14 
REMARK    3  A    between atoms: O4_4  and  C14_19 
REMARK    4  A    between atoms: O5_5  and  C15_20 
REMARK    5  A    between atoms: C1_6  and  C2_7 
REMARK    6  A    between atoms: C1_6  and  C3_8 
REMARK    7  A    between atoms: C2_7  and  C4_9 
REMARK    8  A    between atoms: C4_9  and  C5_10 
ROOT
ATOM      1  C5  UNK     1      49.525  11.716  -4.818  1.00  0.00     0.076 A 
ATOM      2  C8  UNK     1      50.670  12.492  -4.636  1.00  0.00     0.085 A 
ATOM      3  C9  UNK     1      49.619  10.324  -4.815  1.00  0.00     0.085 A 
ATOM      4  C10 UNK     1      51.907  11.876  -4.451  1.00  0.00     0.074 A 
ATOM      5  C11 UNK     1      50.856   9.708  -4.629  1.00  0.00     0.074 A 
ATOM      6  C14 UNK     1      52.001  10.485  -4.447  1.00  0.00     0.071 A 
ENDROOT
BRANCH   1   7
ATOM      7  C4  UNK     1      48.231  12.360  -5.012  1.00  0.00     0.165 C 
ATOM      8  O1  UNK     1      47.381  12.363  -4.101  1.00  0.00    -0.292 OA
BRANCH   7   9
ATOM      9  C2  UNK     1      47.908  13.041  -6.353  1.00  0.00     0.088 C 
BRANCH   9  10
ATOM     10  C1  UNK     1      48.301  12.198  -7.568  1.00  0.00     0.046 C 
BRANCH  10  11
ATOM     11  C3  UNK     1      47.194  11.260  -7.977  1.00  0.00    -0.058 A 
ATOM     12  C6  UNK     1      47.505   9.965  -8.361  1.00  0.00     0.010 A 
ATOM     13  C12 UNK     1      46.480   9.097  -8.739  1.00  0.00     0.037 A 
ATOM     14  C15 UNK     1      45.156   9.535  -8.730  1.00  0.00     0.065 A 
ATOM     15  C13 UNK     1      44.857  10.842  -8.342  1.00  0.00     0.037 A 
ATOM     16  C7  UNK     1      45.881  11.709  -7.963  1.00  0.00     0.010 A 
BRANCH  14  17
ATOM     17  O5  UNK     1      44.157   8.689  -9.097  1.00  0.00    -0.361 OA
ATOM     18  H14 UNK     1      43.301   9.102  -8.891  1.00  0.00     0.217 HD
ENDBRANCH  14  17
ENDBRANCH  10  11
ENDBRANCH   9  10
ENDBRANCH   7   9
ENDBRANCH   1   7
BRANCH   2  19
ATOM     19  O2  UNK     1      50.601  13.853  -4.636  1.00  0.00    -0.360 OA
ATOM     20  H11 UNK     1      51.331  14.233  -5.150  1.00  0.00     0.217 HD
ENDBRANCH   2  19
BRANCH   3  21
ATOM     21  O3  UNK     1      48.512   9.547  -4.990  1.00  0.00    -0.360 OA
ATOM     22  H12 UNK     1      47.766   9.943  -4.508  1.00  0.00     0.217 HD
ENDBRANCH   3  21
BRANCH   6  23
ATOM     23  O4  UNK     1      53.208   9.884  -4.267  1.00  0.00    -0.361 OA
ATOM     24  H13 UNK     1      53.162   8.974  -4.609  1.00  0.00     0.217 HD
ENDBRANCH   6  23
TORSDOF 8
ENDMDL
