MODEL 1
REMARK VINA RESULT:      -8.9      0.000      0.000
REMARK  8 active torsions:
REMARK  status: ('A' for Active; 'I' for Inactive)
REMARK    1  A    between atoms: O2_2  and  C8_13 
REMARK    2  A    between atoms: O3_3  and  C9_14 
REMARK    3  A    between atoms: O4_4  and  C14_19 
REMARK    4  A    between atoms: O5_5  and  C15_20 
REMARK    5  A    between atoms: C1_6  and  C2_7 
REMARK    6  A    between atoms: C1_6  and  C3_8 
REMARK    7  A    between atoms: C2_7  and  C4_9 
REMARK    8  A    between atoms: C4_9  and  C5_10 
ROOT
ATOM      1  C5  UNK     1      40.036  14.834  -1.470  1.00  0.00     0.076 A 
ATOM      2  C8  UNK     1      41.231  14.281  -1.009  1.00  0.00     0.085 A 
ATOM      3  C9  UNK     1      38.840  14.133  -1.320  1.00  0.00     0.085 A 
ATOM      4  C10 UNK     1      41.229  13.027  -0.398  1.00  0.00     0.074 A 
ATOM      5  C11 UNK     1      38.837  12.880  -0.709  1.00  0.00     0.074 A 
ATOM      6  C14 UNK     1      40.032  12.326  -0.247  1.00  0.00     0.071 A 
ENDROOT
BRANCH   1   7
ATOM      7  C4  UNK     1      40.040  16.145  -2.108  1.00  0.00     0.165 C 
ATOM      8  O1  UNK     1      40.366  16.268  -3.305  1.00  0.00    -0.292 OA
BRANCH   7   9
ATOM      9  C2  UNK     1      39.639  17.391  -1.299  1.00  0.00     0.088 C 
BRANCH   9  10
ATOM     10  C1  UNK     1      39.648  18.677  -2.127  1.00  0.00     0.046 C 
BRANCH  10  11
ATOM     11  C3  UNK     1      39.590  19.903  -1.252  1.00  0.00    -0.058 A 
ATOM     12  C6  UNK     1      38.796  19.892  -0.116  1.00  0.00     0.010 A 
ATOM     13  C12 UNK     1      38.743  21.027   0.695  1.00  0.00     0.037 A 
ATOM     14  C15 UNK     1      39.483  22.161   0.357  1.00  0.00     0.065 A 
ATOM     15  C13 UNK     1      40.278  22.158  -0.790  1.00  0.00     0.037 A 
ATOM     16  C7  UNK     1      40.331  21.023  -1.599  1.00  0.00     0.010 A 
BRANCH  14  17
ATOM     17  O5  UNK     1      39.432  23.266   1.147  1.00  0.00    -0.361 OA
ATOM     18  H14 UNK     1      39.100  23.012   2.025  1.00  0.00     0.217 HD
ENDBRANCH  14  17
ENDBRANCH  10  11
ENDBRANCH   9  10
ENDBRANCH   7   9
ENDBRANCH   1   7
BRANCH   2  19
ATOM     19  O2  UNK     1      42.412  14.948  -1.145  1.00  0.00    -0.360 OA
ATOM     20  H11 UNK     1      42.699  14.950  -2.072  1.00  0.00     0.217 HD
ENDBRANCH   2  19
BRANCH   3  21
ATOM     21  O3  UNK     1      37.661  14.656  -1.763  1.00  0.00    -0.360 OA
ATOM     22  H12 UNK     1      36.936  14.050  -1.529  1.00  0.00     0.217 HD
ENDBRANCH   3  21
BRANCH   6  23
ATOM     23  O4  UNK     1      40.030  11.103   0.348  1.00  0.00    -0.361 OA
ATOM     24  H13 UNK     1      40.639  10.517  -0.133  1.00  0.00     0.217 HD
ENDBRANCH   6  23
TORSDOF 8
ENDMDL
MODEL 2
REMARK VINA RESULT:      -8.9      0.003      1.863
REMARK  8 active torsions:
REMARK  status: ('A' for Active; 'I' for Inactive)
REMARK    1  A    between atoms: O2_2  and  C8_13 
REMARK    2  A    between atoms: O3_3  and  C9_14 
REMARK    3  A    between atoms: O4_4  and  C14_19 
REMARK    4  A    between atoms: O5_5  and  C15_20 
REMARK    5  A    between atoms: C1_6  and  C2_7 
REMARK    6  A    between atoms: C1_6  and  C3_8 
REMARK    7  A    between atoms: C2_7  and  C4_9 
REMARK    8  A    between atoms: C4_9  and  C5_10 
ROOT
ATOM      1  C5  UNK     1      40.036  14.834  -1.469  1.00  0.00     0.076 A 
ATOM      2  C8  UNK     1      38.839  14.133  -1.318  1.00  0.00     0.085 A 
ATOM      3  C9  UNK     1      41.230  14.279  -1.008  1.00  0.00     0.085 A 
ATOM      4  C10 UNK     1      38.836  12.880  -0.706  1.00  0.00     0.074 A 
ATOM      5  C11 UNK     1      41.228  13.026  -0.397  1.00  0.00     0.074 A 
ATOM      6  C14 UNK     1      40.030  12.325  -0.246  1.00  0.00     0.071 A 
ENDROOT
BRANCH   1   7
ATOM      7  C4  UNK     1      40.037  16.144  -2.108  1.00  0.00     0.165 C 
ATOM      8  O1  UNK     1      40.361  16.266  -3.305  1.00  0.00    -0.292 OA
BRANCH   7   9
ATOM      9  C2  UNK     1      39.639  17.390  -1.300  1.00  0.00     0.088 C 
BRANCH   9  10
ATOM     10  C1  UNK     1      39.647  18.676  -2.129  1.00  0.00     0.046 C 
BRANCH  10  11
ATOM     11  C3  UNK     1      39.588  19.903  -1.255  1.00  0.00    -0.058 A 
ATOM     12  C6  UNK     1      38.796  19.892  -0.117  1.00  0.00     0.010 A 
ATOM     13  C12 UNK     1      38.743  21.028   0.692  1.00  0.00     0.037 A 
ATOM     14  C15 UNK     1      39.482  22.162   0.353  1.00  0.00     0.065 A 
ATOM     15  C13 UNK     1      40.274  22.159  -0.795  1.00  0.00     0.037 A 
ATOM     16  C7  UNK     1      40.328  21.024  -1.603  1.00  0.00     0.010 A 
BRANCH  14  17
ATOM     17  O5  UNK     1      39.430  23.268   1.142  1.00  0.00    -0.361 OA
ATOM     18  H14 UNK     1      38.528  23.629   1.121  1.00  0.00     0.217 HD
ENDBRANCH  14  17
ENDBRANCH  10  11
ENDBRANCH   9  10
ENDBRANCH   7   9
ENDBRANCH   1   7
BRANCH   2  19
ATOM     19  O2  UNK     1      37.660  14.656  -1.760  1.00  0.00    -0.360 OA
ATOM     20  H11 UNK     1      37.349  15.354  -1.162  1.00  0.00     0.217 HD
ENDBRANCH   2  19
BRANCH   3  21
ATOM     21  O3  UNK     1      42.411  14.946  -1.147  1.00  0.00    -0.360 OA
ATOM     22  H12 UNK     1      42.273  15.723  -1.715  1.00  0.00     0.217 HD
ENDBRANCH   3  21
BRANCH   6  23
ATOM     23  O4  UNK     1      40.028  11.103   0.351  1.00  0.00    -0.361 OA
ATOM     24  H13 UNK     1      40.515  10.477  -0.212  1.00  0.00     0.217 HD
ENDBRANCH   6  23
TORSDOF 8
ENDMDL
MODEL 3
REMARK VINA RESULT:      -8.9      0.009      1.081
REMARK  8 active torsions:
REMARK  status: ('A' for Active; 'I' for Inactive)
REMARK    1  A    between atoms: O2_2  and  C8_13 
REMARK    2  A    between atoms: O3_3  and  C9_14 
REMARK    3  A    between atoms: O4_4  and  C14_19 
REMARK    4  A    between atoms: O5_5  and  C15_20 
REMARK    5  A    between atoms: C1_6  and  C2_7 
REMARK    6  A    between atoms: C1_6  and  C3_8 
REMARK    7  A    between atoms: C2_7  and  C4_9 
REMARK    8  A    between atoms: C4_9  and  C5_10 
ROOT
ATOM      1  C5  UNK     1      40.038  14.835  -1.472  1.00  0.00     0.076 A 
ATOM      2  C8  UNK     1      41.232  14.285  -1.007  1.00  0.00     0.085 A 
ATOM      3  C9  UNK     1      38.842  14.133  -1.323  1.00  0.00     0.085 A 
ATOM      4  C10 UNK     1      41.231  13.032  -0.394  1.00  0.00     0.074 A 
ATOM      5  C11 UNK     1      38.840  12.881  -0.710  1.00  0.00     0.074 A 
ATOM      6  C14 UNK     1      40.035  12.330  -0.245  1.00  0.00     0.071 A 
ENDROOT
BRANCH   1   7
ATOM      7  C4  UNK     1      40.041  16.146  -2.113  1.00  0.00     0.165 C 
ATOM      8  O1  UNK     1      40.371  16.267  -3.308  1.00  0.00    -0.292 OA
BRANCH   7   9
ATOM      9  C2  UNK     1      39.636  17.392  -1.307  1.00  0.00     0.088 C 
BRANCH   9  10
ATOM     10  C1  UNK     1      39.645  18.677  -2.137  1.00  0.00     0.046 C 
BRANCH  10  11
ATOM     11  C3  UNK     1      39.588  19.904  -1.264  1.00  0.00    -0.058 A 
ATOM     12  C6  UNK     1      40.332  21.022  -1.610  1.00  0.00     0.010 A 
ATOM     13  C12 UNK     1      40.278  22.158  -0.802  1.00  0.00     0.037 A 
ATOM     14  C15 UNK     1      39.482  22.162   0.345  1.00  0.00     0.065 A 
ATOM     15  C13 UNK     1      38.739  21.030   0.681  1.00  0.00     0.037 A 
ATOM     16  C7  UNK     1      38.792  19.895  -0.127  1.00  0.00     0.010 A 
BRANCH  14  17
ATOM     17  O5  UNK     1      39.429  23.270   1.132  1.00  0.00    -0.361 OA
ATOM     18  H14 UNK     1      38.673  23.191   1.737  1.00  0.00     0.217 HD
ENDBRANCH  14  17
ENDBRANCH  10  11
ENDBRANCH   9  10
ENDBRANCH   7   9
ENDBRANCH   1   7
BRANCH   2  19
ATOM     19  O2  UNK     1      42.412  14.954  -1.141  1.00  0.00    -0.360 OA
ATOM     20  H11 UNK     1      42.813  15.120  -0.273  1.00  0.00     0.217 HD
ENDBRANCH   2  19
BRANCH   3  21
ATOM     21  O3  UNK     1      37.664  14.653  -1.770  1.00  0.00    -0.360 OA
ATOM     22  H12 UNK     1      37.445  15.442  -1.244  1.00  0.00     0.217 HD
ENDBRANCH   3  21
BRANCH   6  23
ATOM     23  O4  UNK     1      40.033  11.107   0.353  1.00  0.00    -0.361 OA
ATOM     24  H13 UNK     1      39.120  10.772   0.382  1.00  0.00     0.217 HD
ENDBRANCH   6  23
TORSDOF 8
ENDMDL
MODEL 4
REMARK VINA RESULT:      -8.9      0.009      2.154
REMARK  8 active torsions:
REMARK  status: ('A' for Active; 'I' for Inactive)
REMARK    1  A    between atoms: O2_2  and  C8_13 
REMARK    2  A    between atoms: O3_3  and  C9_14 
REMARK    3  A    between atoms: O4_4  and  C14_19 
REMARK    4  A    between atoms: O5_5  and  C15_20 
REMARK    5  A    between atoms: C1_6  and  C2_7 
REMARK    6  A    between atoms: C1_6  and  C3_8 
REMARK    7  A    between atoms: C2_7  and  C4_9 
REMARK    8  A    between atoms: C4_9  and  C5_10 
ROOT
ATOM      1  C5  UNK     1      40.038  14.835  -1.470  1.00  0.00     0.076 A 
ATOM      2  C8  UNK     1      38.841  14.133  -1.320  1.00  0.00     0.085 A 
ATOM      3  C9  UNK     1      41.232  14.283  -1.007  1.00  0.00     0.085 A 
ATOM      4  C10 UNK     1      38.839  12.881  -0.707  1.00  0.00     0.074 A 
ATOM      5  C11 UNK     1      41.230  13.030  -0.394  1.00  0.00     0.074 A 
ATOM      6  C14 UNK     1      40.033  12.329  -0.244  1.00  0.00     0.071 A 
ENDROOT
BRANCH   1   7
ATOM      7  C4  UNK     1      40.039  16.145  -2.112  1.00  0.00     0.165 C 
ATOM      8  O1  UNK     1      40.366  16.265  -3.308  1.00  0.00    -0.292 OA
BRANCH   7   9
ATOM      9  C2  UNK     1      39.636  17.391  -1.306  1.00  0.00     0.088 C 
BRANCH   9  10
ATOM     10  C1  UNK     1      39.645  18.676  -2.137  1.00  0.00     0.046 C 
BRANCH  10  11
ATOM     11  C3  UNK     1      39.587  19.904  -1.264  1.00  0.00    -0.058 A 
ATOM     12  C6  UNK     1      40.329  21.022  -1.612  1.00  0.00     0.010 A 
ATOM     13  C12 UNK     1      40.275  22.159  -0.804  1.00  0.00     0.037 A 
ATOM     14  C15 UNK     1      39.481  22.163   0.343  1.00  0.00     0.065 A 
ATOM     15  C13 UNK     1      38.740  21.030   0.682  1.00  0.00     0.037 A 
ATOM     16  C7  UNK     1      38.793  19.895  -0.126  1.00  0.00     0.010 A 
BRANCH  14  17
ATOM     17  O5  UNK     1      39.427  23.271   1.130  1.00  0.00    -0.361 OA
ATOM     18  H14 UNK     1      38.521  23.378   1.464  1.00  0.00     0.217 HD
ENDBRANCH  14  17
ENDBRANCH  10  11
ENDBRANCH   9  10
ENDBRANCH   7   9
ENDBRANCH   1   7
BRANCH   2  19
ATOM     19  O2  UNK     1      37.663  14.654  -1.766  1.00  0.00    -0.360 OA
ATOM     20  H11 UNK     1      37.439  14.296  -2.640  1.00  0.00     0.217 HD
ENDBRANCH   2  19
BRANCH   3  21
ATOM     21  O3  UNK     1      42.412  14.951  -1.144  1.00  0.00    -0.360 OA
ATOM     22  H12 UNK     1      42.885  14.939  -0.294  1.00  0.00     0.217 HD
ENDBRANCH   3  21
BRANCH   6  23
ATOM     23  O4  UNK     1      40.031  11.107   0.355  1.00  0.00    -0.361 OA
ATOM     24  H13 UNK     1      40.298  10.436  -0.297  1.00  0.00     0.217 HD
ENDBRANCH   6  23
TORSDOF 8
ENDMDL
MODEL 5
REMARK VINA RESULT:      -8.4      0.945      2.165
REMARK  8 active torsions:
REMARK  status: ('A' for Active; 'I' for Inactive)
REMARK    1  A    between atoms: O2_2  and  C8_13 
REMARK    2  A    between atoms: O3_3  and  C9_14 
REMARK    3  A    between atoms: O4_4  and  C14_19 
REMARK    4  A    between atoms: O5_5  and  C15_20 
REMARK    5  A    between atoms: C1_6  and  C2_7 
REMARK    6  A    between atoms: C1_6  and  C3_8 
REMARK    7  A    between atoms: C2_7  and  C4_9 
REMARK    8  A    between atoms: C4_9  and  C5_10 
ROOT
ATOM      1  C5  UNK     1      40.176  14.279  -1.567  1.00  0.00     0.076 A 
ATOM      2  C8  UNK     1      39.208  13.390  -1.097  1.00  0.00     0.085 A 
ATOM      3  C9  UNK     1      41.490  14.184  -1.110  1.00  0.00     0.085 A 
ATOM      4  C10 UNK     1      39.555  12.408  -0.170  1.00  0.00     0.074 A 
ATOM      5  C11 UNK     1      41.837  13.202  -0.183  1.00  0.00     0.074 A 
ATOM      6  C14 UNK     1      40.869  12.314   0.288  1.00  0.00     0.071 A 
ENDROOT
BRANCH   1   7
ATOM      7  C4  UNK     1      39.812  15.305  -2.538  1.00  0.00     0.165 C 
ATOM      8  O1  UNK     1      39.406  14.990  -3.673  1.00  0.00    -0.292 OA
BRANCH   7   9
ATOM      9  C2  UNK     1      39.933  16.791  -2.160  1.00  0.00     0.088 C 
BRANCH   9  10
ATOM     10  C1  UNK     1      39.196  17.148  -0.868  1.00  0.00     0.046 C 
BRANCH  10  11
ATOM     11  C3  UNK     1      39.171  18.637  -0.633  1.00  0.00    -0.058 A 
ATOM     12  C6  UNK     1      38.482  19.143   0.458  1.00  0.00     0.010 A 
ATOM     13  C12 UNK     1      38.459  20.522   0.675  1.00  0.00     0.037 A 
ATOM     14  C15 UNK     1      39.126  21.377  -0.203  1.00  0.00     0.065 A 
ATOM     15  C13 UNK     1      39.815  20.854  -1.298  1.00  0.00     0.037 A 
ATOM     16  C7  UNK     1      39.838  19.476  -1.514  1.00  0.00     0.010 A 
BRANCH  14  17
ATOM     17  O5  UNK     1      39.105  22.720   0.009  1.00  0.00    -0.361 OA
ATOM     18  H14 UNK     1      38.181  23.015   0.074  1.00  0.00     0.217 HD
ENDBRANCH  14  17
ENDBRANCH  10  11
ENDBRANCH   9  10
ENDBRANCH   7   9
ENDBRANCH   1   7
BRANCH   2  19
ATOM     19  O2  UNK     1      37.918  13.465  -1.532  1.00  0.00    -0.360 OA
ATOM     20  H11 UNK     1      37.777  14.272  -2.051  1.00  0.00     0.217 HD
ENDBRANCH   2  19
BRANCH   3  21
ATOM     21  O3  UNK     1      42.451  15.042  -1.557  1.00  0.00    -0.360 OA
ATOM     22  H12 UNK     1      43.296  14.565  -1.625  1.00  0.00     0.217 HD
ENDBRANCH   3  21
BRANCH   6  23
ATOM     23  O4  UNK     1      41.207  11.356   1.193  1.00  0.00    -0.361 OA
ATOM     24  H13 UNK     1      40.434  10.789   1.356  1.00  0.00     0.217 HD
ENDBRANCH   6  23
TORSDOF 8
ENDMDL
MODEL 6
REMARK VINA RESULT:      -8.4      0.951      2.405
REMARK  8 active torsions:
REMARK  status: ('A' for Active; 'I' for Inactive)
REMARK    1  A    between atoms: O2_2  and  C8_13 
REMARK    2  A    between atoms: O3_3  and  C9_14 
REMARK    3  A    between atoms: O4_4  and  C14_19 
REMARK    4  A    between atoms: O5_5  and  C15_20 
REMARK    5  A    between atoms: C1_6  and  C2_7 
REMARK    6  A    between atoms: C1_6  and  C3_8 
REMARK    7  A    between atoms: C2_7  and  C4_9 
REMARK    8  A    between atoms: C4_9  and  C5_10 
ROOT
ATOM      1  C5  UNK     1      40.182  14.266  -1.546  1.00  0.00     0.076 A 
ATOM      2  C8  UNK     1      39.218  13.369  -1.088  1.00  0.00     0.085 A 
ATOM      3  C9  UNK     1      41.493  14.180  -1.076  1.00  0.00     0.085 A 
ATOM      4  C10 UNK     1      39.563  12.386  -0.160  1.00  0.00     0.074 A 
ATOM      5  C11 UNK     1      41.839  13.198  -0.149  1.00  0.00     0.074 A 
ATOM      6  C14 UNK     1      40.874  12.301   0.310  1.00  0.00     0.071 A 
ENDROOT
BRANCH   1   7
ATOM      7  C4  UNK     1      39.820  15.293  -2.517  1.00  0.00     0.165 C 
ATOM      8  O1  UNK     1      39.416  14.978  -3.653  1.00  0.00    -0.292 OA
BRANCH   7   9
ATOM      9  C2  UNK     1      39.938  16.779  -2.138  1.00  0.00     0.088 C 
BRANCH   9  10
ATOM     10  C1  UNK     1      39.180  17.139  -0.859  1.00  0.00     0.046 C 
BRANCH  10  11
ATOM     11  C3  UNK     1      39.157  18.627  -0.625  1.00  0.00    -0.058 A 
ATOM     12  C6  UNK     1      39.827  19.466  -1.503  1.00  0.00     0.010 A 
ATOM     13  C12 UNK     1      39.805  20.844  -1.287  1.00  0.00     0.037 A 
ATOM     14  C15 UNK     1      39.114  21.368  -0.194  1.00  0.00     0.065 A 
ATOM     15  C13 UNK     1      38.444  20.513   0.682  1.00  0.00     0.037 A 
ATOM     16  C7  UNK     1      38.465  19.135   0.465  1.00  0.00     0.010 A 
BRANCH  14  17
ATOM     17  O5  UNK     1      39.091  22.711   0.016  1.00  0.00    -0.361 OA
ATOM     18  H14 UNK     1      39.918  22.977   0.452  1.00  0.00     0.217 HD
ENDBRANCH  14  17
ENDBRANCH  10  11
ENDBRANCH   9  10
ENDBRANCH   7   9
ENDBRANCH   1   7
BRANCH   2  19
ATOM     19  O2  UNK     1      37.931  13.434  -1.534  1.00  0.00    -0.360 OA
ATOM     20  H11 UNK     1      37.402  12.712  -1.159  1.00  0.00     0.217 HD
ENDBRANCH   2  19
BRANCH   3  21
ATOM     21  O3  UNK     1      42.451  15.047  -1.512  1.00  0.00    -0.360 OA
ATOM     22  H12 UNK     1      42.419  15.855  -0.971  1.00  0.00     0.217 HD
ENDBRANCH   3  21
BRANCH   6  23
ATOM     23  O4  UNK     1      41.212  11.343   1.215  1.00  0.00    -0.361 OA
ATOM     24  H13 UNK     1      42.095  11.000   0.996  1.00  0.00     0.217 HD
ENDBRANCH   6  23
TORSDOF 8
ENDMDL
MODEL 7
REMARK VINA RESULT:      -8.4      0.944      1.173
REMARK  8 active torsions:
REMARK  status: ('A' for Active; 'I' for Inactive)
REMARK    1  A    between atoms: O2_2  and  C8_13 
REMARK    2  A    between atoms: O3_3  and  C9_14 
REMARK    3  A    between atoms: O4_4  and  C14_19 
REMARK    4  A    between atoms: O5_5  and  C15_20 
REMARK    5  A    between atoms: C1_6  and  C2_7 
REMARK    6  A    between atoms: C1_6  and  C3_8 
REMARK    7  A    between atoms: C2_7  and  C4_9 
REMARK    8  A    between atoms: C4_9  and  C5_10 
ROOT
ATOM      1  C5  UNK     1      40.171  14.273  -1.565  1.00  0.00     0.076 A 
ATOM      2  C8  UNK     1      41.485  14.178  -1.109  1.00  0.00     0.085 A 
ATOM      3  C9  UNK     1      39.202  13.387  -1.093  1.00  0.00     0.085 A 
ATOM      4  C10 UNK     1      41.831  13.197  -0.180  1.00  0.00     0.074 A 
ATOM      5  C11 UNK     1      39.548  12.407  -0.164  1.00  0.00     0.074 A 
ATOM      6  C14 UNK     1      40.863  12.311   0.293  1.00  0.00     0.071 A 
ENDROOT
BRANCH   1   7
ATOM      7  C4  UNK     1      39.809  15.300  -2.536  1.00  0.00     0.165 C 
ATOM      8  O1  UNK     1      39.400  14.985  -3.671  1.00  0.00    -0.292 OA
BRANCH   7   9
ATOM      9  C2  UNK     1      39.938  16.786  -2.161  1.00  0.00     0.088 C 
BRANCH   9  10
ATOM     10  C1  UNK     1      39.200  17.149  -0.871  1.00  0.00     0.046 C 
BRANCH  10  11
ATOM     11  C3  UNK     1      39.178  18.639  -0.642  1.00  0.00    -0.058 A 
ATOM     12  C6  UNK     1      38.493  19.151   0.449  1.00  0.00     0.010 A 
ATOM     13  C12 UNK     1      38.474  20.530   0.661  1.00  0.00     0.037 A 
ATOM     14  C15 UNK     1      39.139  21.381  -0.223  1.00  0.00     0.065 A 
ATOM     15  C13 UNK     1      39.824  20.853  -1.317  1.00  0.00     0.037 A 
ATOM     16  C7  UNK     1      39.844  19.474  -1.528  1.00  0.00     0.010 A 
BRANCH  14  17
ATOM     17  O5  UNK     1      39.121  22.725  -0.015  1.00  0.00    -0.361 OA
ATOM     18  H14 UNK     1      39.229  23.178  -0.869  1.00  0.00     0.217 HD
ENDBRANCH  14  17
ENDBRANCH  10  11
ENDBRANCH   9  10
ENDBRANCH   7   9
ENDBRANCH   1   7
BRANCH   2  19
ATOM     19  O2  UNK     1      42.447  15.033  -1.557  1.00  0.00    -0.360 OA
ATOM     20  H11 UNK     1      42.324  15.917  -1.176  1.00  0.00     0.217 HD
ENDBRANCH   2  19
BRANCH   3  21
ATOM     21  O3  UNK     1      37.912  13.464  -1.526  1.00  0.00    -0.360 OA
ATOM     22  H12 UNK     1      37.819  14.233  -2.114  1.00  0.00     0.217 HD
ENDBRANCH   3  21
BRANCH   6  23
ATOM     23  O4  UNK     1      41.200  11.353   1.199  1.00  0.00    -0.361 OA
ATOM     24  H13 UNK     1      40.824  11.591   2.063  1.00  0.00     0.217 HD
ENDBRANCH   6  23
TORSDOF 8
ENDMDL
MODEL 8
REMARK VINA RESULT:      -8.2      1.676      2.208
REMARK  8 active torsions:
REMARK  status: ('A' for Active; 'I' for Inactive)
REMARK    1  A    between atoms: O2_2  and  C8_13 
REMARK    2  A    between atoms: O3_3  and  C9_14 
REMARK    3  A    between atoms: O4_4  and  C14_19 
REMARK    4  A    between atoms: O5_5  and  C15_20 
REMARK    5  A    between atoms: C1_6  and  C2_7 
REMARK    6  A    between atoms: C1_6  and  C3_8 
REMARK    7  A    between atoms: C2_7  and  C4_9 
REMARK    8  A    between atoms: C4_9  and  C5_10 
ROOT
ATOM      1  C5  UNK     1      40.202  13.203  -1.474  1.00  0.00     0.076 A 
ATOM      2  C8  UNK     1      41.374  12.446  -1.432  1.00  0.00     0.085 A 
ATOM      3  C9  UNK     1      39.140  12.890  -0.625  1.00  0.00     0.085 A 
ATOM      4  C10 UNK     1      41.483  11.378  -0.542  1.00  0.00     0.074 A 
ATOM      5  C11 UNK     1      39.249  11.823   0.265  1.00  0.00     0.074 A 
ATOM      6  C14 UNK     1      40.420  11.066   0.306  1.00  0.00     0.071 A 
ENDROOT
BRANCH   1   7
ATOM      7  C4  UNK     1      40.090  14.320  -2.404  1.00  0.00     0.165 C 
ATOM      8  O1  UNK     1      39.263  14.289  -3.337  1.00  0.00    -0.292 OA
BRANCH   7   9
ATOM      9  C2  UNK     1      41.000  15.549  -2.238  1.00  0.00     0.088 C 
BRANCH   9  10
ATOM     10  C1  UNK     1      40.423  16.818  -2.868  1.00  0.00     0.046 C 
BRANCH  10  11
ATOM     11  C3  UNK     1      39.806  17.723  -1.833  1.00  0.00    -0.058 A 
ATOM     12  C6  UNK     1      39.207  17.169  -0.713  1.00  0.00     0.010 A 
ATOM     13  C12 UNK     1      38.636  18.007   0.245  1.00  0.00     0.037 A 
ATOM     14  C15 UNK     1      38.669  19.391   0.070  1.00  0.00     0.065 A 
ATOM     15  C13 UNK     1      39.275  19.936  -1.062  1.00  0.00     0.037 A 
ATOM     16  C7  UNK     1      39.846  19.098  -2.019  1.00  0.00     0.010 A 
BRANCH  14  17
ATOM     17  O5  UNK     1      38.114  20.208   1.005  1.00  0.00    -0.361 OA
ATOM     18  H14 UNK     1      37.152  20.240   0.865  1.00  0.00     0.217 HD
ENDBRANCH  14  17
ENDBRANCH  10  11
ENDBRANCH   9  10
ENDBRANCH   7   9
ENDBRANCH   1   7
BRANCH   2  19
ATOM     19  O2  UNK     1      42.424  12.734  -2.252  1.00  0.00    -0.360 OA
ATOM     20  H11 UNK     1      42.117  12.891  -3.159  1.00  0.00     0.217 HD
ENDBRANCH   2  19
BRANCH   3  21
ATOM     21  O3  UNK     1      37.987  13.617  -0.650  1.00  0.00    -0.360 OA
ATOM     22  H12 UNK     1      37.956  14.191   0.136  1.00  0.00     0.217 HD
ENDBRANCH   3  21
BRANCH   6  23
ATOM     23  O4  UNK     1      40.526  10.023   1.174  1.00  0.00    -0.361 OA
ATOM     24  H13 UNK     1      41.449   9.954   1.473  1.00  0.00     0.217 HD
ENDBRANCH   6  23
TORSDOF 8
ENDMDL
MODEL 9
REMARK VINA RESULT:      -8.1      1.667      2.793
REMARK  8 active torsions:
REMARK  status: ('A' for Active; 'I' for Inactive)
REMARK    1  A    between atoms: O2_2  and  C8_13 
REMARK    2  A    between atoms: O3_3  and  C9_14 
REMARK    3  A    between atoms: O4_4  and  C14_19 
REMARK    4  A    between atoms: O5_5  and  C15_20 
REMARK    5  A    between atoms: C1_6  and  C2_7 
REMARK    6  A    between atoms: C1_6  and  C3_8 
REMARK    7  A    between atoms: C2_7  and  C4_9 
REMARK    8  A    between atoms: C4_9  and  C5_10 
ROOT
ATOM      1  C5  UNK     1      40.194  13.217  -1.484  1.00  0.00     0.076 A 
ATOM      2  C8  UNK     1      39.131  12.909  -0.635  1.00  0.00     0.085 A 
ATOM      3  C9  UNK     1      41.362  12.456  -1.443  1.00  0.00     0.085 A 
ATOM      4  C10 UNK     1      39.236  11.839   0.254  1.00  0.00     0.074 A 
ATOM      5  C11 UNK     1      41.468  11.386  -0.555  1.00  0.00     0.074 A 
ATOM      6  C14 UNK     1      40.404  11.078   0.295  1.00  0.00     0.071 A 
ENDROOT
BRANCH   1   7
ATOM      7  C4  UNK     1      40.083  14.336  -2.413  1.00  0.00     0.165 C 
ATOM      8  O1  UNK     1      39.257  14.306  -3.346  1.00  0.00    -0.292 OA
BRANCH   7   9
ATOM      9  C2  UNK     1      40.995  15.563  -2.246  1.00  0.00     0.088 C 
BRANCH   9  10
ATOM     10  C1  UNK     1      40.418  16.834  -2.872  1.00  0.00     0.046 C 
BRANCH  10  11
ATOM     11  C3  UNK     1      39.804  17.737  -1.833  1.00  0.00    -0.058 A 
ATOM     12  C6  UNK     1      39.192  17.180  -0.721  1.00  0.00     0.010 A 
ATOM     13  C12 UNK     1      38.624  18.016   0.241  1.00  0.00     0.037 A 
ATOM     14  C15 UNK     1      38.673  19.401   0.077  1.00  0.00     0.065 A 
ATOM     15  C13 UNK     1      39.292  19.949  -1.047  1.00  0.00     0.037 A 
ATOM     16  C7  UNK     1      39.860  19.113  -2.007  1.00  0.00     0.010 A 
BRANCH  14  17
ATOM     17  O5  UNK     1      38.121  20.217   1.016  1.00  0.00    -0.361 OA
ATOM     18  H14 UNK     1      38.776  20.383   1.715  1.00  0.00     0.217 HD
ENDBRANCH  14  17
ENDBRANCH  10  11
ENDBRANCH   9  10
ENDBRANCH   7   9
ENDBRANCH   1   7
BRANCH   2  19
ATOM     19  O2  UNK     1      37.980  13.639  -0.658  1.00  0.00    -0.360 OA
ATOM     20  H11 UNK     1      38.109  14.466  -1.150  1.00  0.00     0.217 HD
ENDBRANCH   2  19
BRANCH   3  21
ATOM     21  O3  UNK     1      42.412  12.740  -2.265  1.00  0.00    -0.360 OA
ATOM     22  H12 UNK     1      43.193  12.947  -1.723  1.00  0.00     0.217 HD
ENDBRANCH   3  21
BRANCH   6  23
ATOM     23  O4  UNK     1      40.507  10.035   1.162  1.00  0.00    -0.361 OA
ATOM     24  H13 UNK     1      39.622   9.663   1.315  1.00  0.00     0.217 HD
ENDBRANCH   6  23
TORSDOF 8
ENDMDL
MODEL 10
REMARK VINA RESULT:      -8.1      2.101      7.117
REMARK  8 active torsions:
REMARK  status: ('A' for Active; 'I' for Inactive)
REMARK    1  A    between atoms: O2_2  and  C8_13 
REMARK    2  A    between atoms: O3_3  and  C9_14 
REMARK    3  A    between atoms: O4_4  and  C14_19 
REMARK    4  A    between atoms: O5_5  and  C15_20 
REMARK    5  A    between atoms: C1_6  and  C2_7 
REMARK    6  A    between atoms: C1_6  and  C3_8 
REMARK    7  A    between atoms: C2_7  and  C4_9 
REMARK    8  A    between atoms: C4_9  and  C5_10 
ROOT
ATOM      1  C5  UNK     1      39.882  16.744  -2.152  1.00  0.00     0.076 A 
ATOM      2  C8  UNK     1      39.200  16.850  -0.940  1.00  0.00     0.085 A 
ATOM      3  C9  UNK     1      40.210  17.893  -2.871  1.00  0.00     0.085 A 
ATOM      4  C10 UNK     1      38.845  18.106  -0.448  1.00  0.00     0.074 A 
ATOM      5  C11 UNK     1      39.856  19.149  -2.379  1.00  0.00     0.074 A 
ATOM      6  C14 UNK     1      39.172  19.256  -1.166  1.00  0.00     0.071 A 
ENDROOT
BRANCH   1   7
ATOM      7  C4  UNK     1      40.253  15.430  -2.666  1.00  0.00     0.165 C 
ATOM      8  O1  UNK     1      39.403  14.696  -3.206  1.00  0.00    -0.292 OA
BRANCH   7   9
ATOM      9  C2  UNK     1      41.706  14.943  -2.541  1.00  0.00     0.088 C 
BRANCH   9  10
ATOM     10  C1  UNK     1      42.140  14.702  -1.093  1.00  0.00     0.046 C 
BRANCH  10  11
ATOM     11  C3  UNK     1      41.597  13.402  -0.558  1.00  0.00    -0.058 A 
ATOM     12  C6  UNK     1      41.016  13.372   0.700  1.00  0.00     0.010 A 
ATOM     13  C12 UNK     1      40.513  12.168   1.195  1.00  0.00     0.037 A 
ATOM     14  C15 UNK     1      40.599  11.007   0.426  1.00  0.00     0.065 A 
ATOM     15  C13 UNK     1      41.186  11.051  -0.839  1.00  0.00     0.037 A 
ATOM     16  C7  UNK     1      41.688  12.254  -1.334  1.00  0.00     0.010 A 
BRANCH  14  17
ATOM     17  O5  UNK     1      40.107   9.834   0.908  1.00  0.00    -0.361 OA
ATOM     18  H14 UNK     1      40.736   9.470   1.553  1.00  0.00     0.217 HD
ENDBRANCH  14  17
ENDBRANCH  10  11
ENDBRANCH   9  10
ENDBRANCH   7   9
ENDBRANCH   1   7
BRANCH   2  19
ATOM     19  O2  UNK     1      38.869  15.740  -0.221  1.00  0.00    -0.360 OA
ATOM     20  H11 UNK     1      38.954  14.942  -0.766  1.00  0.00     0.217 HD
ENDBRANCH   2  19
BRANCH   3  21
ATOM     21  O3  UNK     1      40.877  17.812  -4.057  1.00  0.00    -0.360 OA
ATOM     22  H12 UNK     1      40.776  16.914  -4.418  1.00  0.00     0.217 HD
ENDBRANCH   3  21
BRANCH   6  23
ATOM     23  O4  UNK     1      38.826  20.481  -0.687  1.00  0.00    -0.361 OA
ATOM     24  H13 UNK     1      39.566  20.836  -0.165  1.00  0.00     0.217 HD
ENDBRANCH   6  23
TORSDOF 8
ENDMDL
MODEL 11
REMARK VINA RESULT:      -8.1      2.123      7.098
REMARK  8 active torsions:
REMARK  status: ('A' for Active; 'I' for Inactive)
REMARK    1  A    between atoms: O2_2  and  C8_13 
REMARK    2  A    between atoms: O3_3  and  C9_14 
REMARK    3  A    between atoms: O4_4  and  C14_19 
REMARK    4  A    between atoms: O5_5  and  C15_20 
REMARK    5  A    between atoms: C1_6  and  C2_7 
REMARK    6  A    between atoms: C1_6  and  C3_8 
REMARK    7  A    between atoms: C2_7  and  C4_9 
REMARK    8  A    between atoms: C4_9  and  C5_10 
ROOT
ATOM      1  C5  UNK     1      39.841  16.695  -2.157  1.00  0.00     0.076 A 
ATOM      2  C8  UNK     1      40.200  17.828  -2.887  1.00  0.00     0.085 A 
ATOM      3  C9  UNK     1      39.151  16.831  -0.952  1.00  0.00     0.085 A 
ATOM      4  C10 UNK     1      39.869  19.097  -2.412  1.00  0.00     0.074 A 
ATOM      5  C11 UNK     1      38.820  18.099  -0.477  1.00  0.00     0.074 A 
ATOM      6  C14 UNK     1      39.179  19.233  -1.207  1.00  0.00     0.071 A 
ENDROOT
BRANCH   1   7
ATOM      7  C4  UNK     1      40.187  15.368  -2.654  1.00  0.00     0.165 C 
ATOM      8  O1  UNK     1      39.321  14.642  -3.180  1.00  0.00    -0.292 OA
BRANCH   7   9
ATOM      9  C2  UNK     1      41.632  14.856  -2.528  1.00  0.00     0.088 C 
BRANCH   9  10
ATOM     10  C1  UNK     1      42.082  14.672  -1.077  1.00  0.00     0.046 C 
BRANCH  10  11
ATOM     11  C3  UNK     1      41.604  13.361  -0.507  1.00  0.00    -0.058 A 
ATOM     12  C6  UNK     1      41.697  12.210  -1.274  1.00  0.00     0.010 A 
ATOM     13  C12 UNK     1      41.254  10.997  -0.747  1.00  0.00     0.037 A 
ATOM     14  C15 UNK     1      40.722  10.950   0.543  1.00  0.00     0.065 A 
ATOM     15  C13 UNK     1      40.633  12.116   1.304  1.00  0.00     0.037 A 
ATOM     16  C7  UNK     1      41.077  13.328   0.776  1.00  0.00     0.010 A 
BRANCH  14  17
ATOM     17  O5  UNK     1      40.291   9.766   1.058  1.00  0.00    -0.361 OA
ATOM     18  H14 UNK     1      40.713   9.038   0.571  1.00  0.00     0.217 HD
ENDBRANCH  14  17
ENDBRANCH  10  11
ENDBRANCH   9  10
ENDBRANCH   7   9
ENDBRANCH   1   7
BRANCH   2  19
ATOM     19  O2  UNK     1      40.873  17.718  -4.067  1.00  0.00    -0.360 OA
ATOM     20  H11 UNK     1      40.365  18.117  -4.790  1.00  0.00     0.217 HD
ENDBRANCH   2  19
BRANCH   3  21
ATOM     21  O3  UNK     1      38.791  15.736  -0.223  1.00  0.00    -0.360 OA
ATOM     22  H12 UNK     1      38.298  16.026   0.564  1.00  0.00     0.217 HD
ENDBRANCH   3  21
BRANCH   6  23
ATOM     23  O4  UNK     1      38.857  20.471  -0.743  1.00  0.00    -0.361 OA
ATOM     24  H13 UNK     1      38.426  20.973  -1.456  1.00  0.00     0.217 HD
ENDBRANCH   6  23
TORSDOF 8
ENDMDL
MODEL 12
REMARK VINA RESULT:      -8.1      2.113      7.010
REMARK  8 active torsions:
REMARK  status: ('A' for Active; 'I' for Inactive)
REMARK    1  A    between atoms: O2_2  and  C8_13 
REMARK    2  A    between atoms: O3_3  and  C9_14 
REMARK    3  A    between atoms: O4_4  and  C14_19 
REMARK    4  A    between atoms: O5_5  and  C15_20 
REMARK    5  A    between atoms: C1_6  and  C2_7 
REMARK    6  A    between atoms: C1_6  and  C3_8 
REMARK    7  A    between atoms: C2_7  and  C4_9 
REMARK    8  A    between atoms: C4_9  and  C5_10 
ROOT
ATOM      1  C5  UNK     1      39.762  16.692  -2.092  1.00  0.00     0.076 A 
ATOM      2  C8  UNK     1      40.157  17.871  -2.724  1.00  0.00     0.085 A 
ATOM      3  C9  UNK     1      39.012  16.749  -0.917  1.00  0.00     0.085 A 
ATOM      4  C10 UNK     1      39.804  19.106  -2.181  1.00  0.00     0.074 A 
ATOM      5  C11 UNK     1      38.658  17.984  -0.374  1.00  0.00     0.074 A 
ATOM      6  C14 UNK     1      39.055  19.163  -1.006  1.00  0.00     0.071 A 
ENDROOT
BRANCH   1   7
ATOM      7  C4  UNK     1      40.131  15.401  -2.661  1.00  0.00     0.165 C 
ATOM      8  O1  UNK     1      39.289  14.708  -3.263  1.00  0.00    -0.292 OA
BRANCH   7   9
ATOM      9  C2  UNK     1      41.573  14.886  -2.515  1.00  0.00     0.088 C 
BRANCH   9  10
ATOM     10  C1  UNK     1      42.011  14.720  -1.058  1.00  0.00     0.046 C 
BRANCH  10  11
ATOM     11  C3  UNK     1      41.549  13.406  -0.484  1.00  0.00    -0.058 A 
ATOM     12  C6  UNK     1      41.017  13.370   0.796  1.00  0.00     0.010 A 
ATOM     13  C12 UNK     1      40.589  12.153   1.328  1.00  0.00     0.037 A 
ATOM     14  C15 UNK     1      40.701  10.985   0.573  1.00  0.00     0.065 A 
ATOM     15  C13 UNK     1      41.240  11.034  -0.713  1.00  0.00     0.037 A 
ATOM     16  C7  UNK     1      41.666  12.251  -1.244  1.00  0.00     0.010 A 
BRANCH  14  17
ATOM     17  O5  UNK     1      40.283   9.798   1.091  1.00  0.00    -0.361 OA
ATOM     18  H14 UNK     1      40.165   9.162   0.366  1.00  0.00     0.217 HD
ENDBRANCH  14  17
ENDBRANCH  10  11
ENDBRANCH   9  10
ENDBRANCH   7   9
ENDBRANCH   1   7
BRANCH   2  19
ATOM     19  O2  UNK     1      40.890  17.839  -3.873  1.00  0.00    -0.360 OA
ATOM     20  H11 UNK     1      41.111  18.738  -4.164  1.00  0.00     0.217 HD
ENDBRANCH   2  19
BRANCH   3  21
ATOM     21  O3  UNK     1      38.615  15.609  -0.283  1.00  0.00    -0.360 OA
ATOM     22  H12 UNK     1      37.860  15.226  -0.763  1.00  0.00     0.217 HD
ENDBRANCH   3  21
BRANCH   6  23
ATOM     23  O4  UNK     1      38.710  20.368  -0.476  1.00  0.00    -0.361 OA
ATOM     24  H13 UNK     1      39.461  20.979  -0.568  1.00  0.00     0.217 HD
ENDBRANCH   6  23
TORSDOF 8
ENDMDL
MODEL 13
REMARK VINA RESULT:      -8.0      1.634      7.573
REMARK  8 active torsions:
REMARK  status: ('A' for Active; 'I' for Inactive)
REMARK    1  A    between atoms: O2_2  and  C8_13 
REMARK    2  A    between atoms: O3_3  and  C9_14 
REMARK    3  A    between atoms: O4_4  and  C14_19 
REMARK    4  A    between atoms: O5_5  and  C15_20 
REMARK    5  A    between atoms: C1_6  and  C2_7 
REMARK    6  A    between atoms: C1_6  and  C3_8 
REMARK    7  A    between atoms: C2_7  and  C4_9 
REMARK    8  A    between atoms: C4_9  and  C5_10 
ROOT
ATOM      1  C5  UNK     1      39.060  18.192  -0.717  1.00  0.00     0.076 A 
ATOM      2  C8  UNK     1      38.413  18.792   0.363  1.00  0.00     0.085 A 
ATOM      3  C9  UNK     1      39.730  18.981  -1.652  1.00  0.00     0.085 A 
ATOM      4  C10 UNK     1      38.437  20.179   0.509  1.00  0.00     0.074 A 
ATOM      5  C11 UNK     1      39.755  20.367  -1.508  1.00  0.00     0.074 A 
ATOM      6  C14 UNK     1      39.107  20.967  -0.426  1.00  0.00     0.071 A 
ENDROOT
BRANCH   1   7
ATOM      7  C4  UNK     1      39.035  16.742  -0.868  1.00  0.00     0.165 C 
ATOM      8  O1  UNK     1      37.952  16.125  -0.898  1.00  0.00    -0.292 OA
BRANCH   7   9
ATOM      9  C2  UNK     1      40.355  15.963  -0.988  1.00  0.00     0.088 C 
BRANCH   9  10
ATOM     10  C1  UNK     1      40.257  14.745  -1.909  1.00  0.00     0.046 C 
BRANCH  10  11
ATOM     11  C3  UNK     1      40.450  13.456  -1.151  1.00  0.00    -0.058 A 
ATOM     12  C6  UNK     1      39.749  13.246   0.026  1.00  0.00     0.010 A 
ATOM     13  C12 UNK     1      39.927  12.053   0.727  1.00  0.00     0.037 A 
ATOM     14  C15 UNK     1      40.807  11.084   0.243  1.00  0.00     0.065 A 
ATOM     15  C13 UNK     1      41.506  11.309  -0.943  1.00  0.00     0.037 A 
ATOM     16  C7  UNK     1      41.327  12.501  -1.644  1.00  0.00     0.010 A 
BRANCH  14  17
ATOM     17  O5  UNK     1      40.979   9.921   0.925  1.00  0.00    -0.361 OA
ATOM     18  H14 UNK     1      41.370   9.260   0.329  1.00  0.00     0.217 HD
ENDBRANCH  14  17
ENDBRANCH  10  11
ENDBRANCH   9  10
ENDBRANCH   7   9
ENDBRANCH   1   7
BRANCH   2  19
ATOM     19  O2  UNK     1      37.752  18.041   1.289  1.00  0.00    -0.360 OA
ATOM     20  H11 UNK     1      37.040  17.530   0.871  1.00  0.00     0.217 HD
ENDBRANCH   2  19
BRANCH   3  21
ATOM     21  O3  UNK     1      40.370  18.415  -2.716  1.00  0.00    -0.360 OA
ATOM     22  H12 UNK     1      41.318  18.340  -2.514  1.00  0.00     0.217 HD
ENDBRANCH   3  21
BRANCH   6  23
ATOM     23  O4  UNK     1      39.130  22.320  -0.286  1.00  0.00    -0.361 OA
ATOM     24  H13 UNK     1      38.998  22.542   0.652  1.00  0.00     0.217 HD
ENDBRANCH   6  23
TORSDOF 8
ENDMDL
MODEL 14
REMARK VINA RESULT:      -8.0      1.635      7.473
REMARK  8 active torsions:
REMARK  status: ('A' for Active; 'I' for Inactive)
REMARK    1  A    between atoms: O2_2  and  C8_13 
REMARK    2  A    between atoms: O3_3  and  C9_14 
REMARK    3  A    between atoms: O4_4  and  C14_19 
REMARK    4  A    between atoms: O5_5  and  C15_20 
REMARK    5  A    between atoms: C1_6  and  C2_7 
REMARK    6  A    between atoms: C1_6  and  C3_8 
REMARK    7  A    between atoms: C2_7  and  C4_9 
REMARK    8  A    between atoms: C4_9  and  C5_10 
ROOT
ATOM      1  C5  UNK     1      39.061  18.191  -0.715  1.00  0.00     0.076 A 
ATOM      2  C8  UNK     1      39.732  18.978  -1.652  1.00  0.00     0.085 A 
ATOM      3  C9  UNK     1      38.412  18.792   0.363  1.00  0.00     0.085 A 
ATOM      4  C10 UNK     1      39.754  20.365  -1.509  1.00  0.00     0.074 A 
ATOM      5  C11 UNK     1      38.434  20.179   0.506  1.00  0.00     0.074 A 
ATOM      6  C14 UNK     1      39.106  20.966  -0.430  1.00  0.00     0.071 A 
ENDROOT
BRANCH   1   7
ATOM      7  C4  UNK     1      39.038  16.741  -0.866  1.00  0.00     0.165 C 
ATOM      8  O1  UNK     1      37.955  16.123  -0.903  1.00  0.00    -0.292 OA
BRANCH   7   9
ATOM      9  C2  UNK     1      40.359  15.962  -0.977  1.00  0.00     0.088 C 
BRANCH   9  10
ATOM     10  C1  UNK     1      40.268  14.746  -1.901  1.00  0.00     0.046 C 
BRANCH  10  11
ATOM     11  C3  UNK     1      40.457  13.456  -1.144  1.00  0.00    -0.058 A 
ATOM     12  C6  UNK     1      39.761  13.250   0.037  1.00  0.00     0.010 A 
ATOM     13  C12 UNK     1      39.936  12.056   0.737  1.00  0.00     0.037 A 
ATOM     14  C15 UNK     1      40.807  11.082   0.248  1.00  0.00     0.065 A 
ATOM     15  C13 UNK     1      41.502  11.302  -0.941  1.00  0.00     0.037 A 
ATOM     16  C7  UNK     1      41.326  12.496  -1.641  1.00  0.00     0.010 A 
BRANCH  14  17
ATOM     17  O5  UNK     1      40.976   9.917   0.930  1.00  0.00    -0.361 OA
ATOM     18  H14 UNK     1      40.542   9.199   0.440  1.00  0.00     0.217 HD
ENDBRANCH  14  17
ENDBRANCH  10  11
ENDBRANCH   9  10
ENDBRANCH   7   9
ENDBRANCH   1   7
BRANCH   2  19
ATOM     19  O2  UNK     1      40.372  18.412  -2.714  1.00  0.00    -0.360 OA
ATOM     20  H11 UNK     1      41.327  18.356  -2.548  1.00  0.00     0.217 HD
ENDBRANCH   2  19
BRANCH   3  21
ATOM     21  O3  UNK     1      37.750  18.042   1.289  1.00  0.00    -0.360 OA
ATOM     22  H12 UNK     1      36.822  18.330   1.327  1.00  0.00     0.217 HD
ENDBRANCH   3  21
BRANCH   6  23
ATOM     23  O4  UNK     1      39.128  22.320  -0.290  1.00  0.00    -0.361 OA
ATOM     24  H13 UNK     1      39.482  22.540   0.589  1.00  0.00     0.217 HD
ENDBRANCH   6  23
TORSDOF 8
ENDMDL
MODEL 15
REMARK VINA RESULT:      -8.0      1.634      7.627
REMARK  8 active torsions:
REMARK  status: ('A' for Active; 'I' for Inactive)
REMARK    1  A    between atoms: O2_2  and  C8_13 
REMARK    2  A    between atoms: O3_3  and  C9_14 
REMARK    3  A    between atoms: O4_4  and  C14_19 
REMARK    4  A    between atoms: O5_5  and  C15_20 
REMARK    5  A    between atoms: C1_6  and  C2_7 
REMARK    6  A    between atoms: C1_6  and  C3_8 
REMARK    7  A    between atoms: C2_7  and  C4_9 
REMARK    8  A    between atoms: C4_9  and  C5_10 
ROOT
ATOM      1  C5  UNK     1      39.060  18.191  -0.717  1.00  0.00     0.076 A 
ATOM      2  C8  UNK     1      38.411  18.790   0.363  1.00  0.00     0.085 A 
ATOM      3  C9  UNK     1      39.731  18.980  -1.651  1.00  0.00     0.085 A 
ATOM      4  C10 UNK     1      38.433  20.177   0.509  1.00  0.00     0.074 A 
ATOM      5  C11 UNK     1      39.753  20.367  -1.506  1.00  0.00     0.074 A 
ATOM      6  C14 UNK     1      39.104  20.966  -0.426  1.00  0.00     0.071 A 
ENDROOT
BRANCH   1   7
ATOM      7  C4  UNK     1      39.037  16.741  -0.868  1.00  0.00     0.165 C 
ATOM      8  O1  UNK     1      37.955  16.123  -0.904  1.00  0.00    -0.292 OA
BRANCH   7   9
ATOM      9  C2  UNK     1      40.359  15.963  -0.982  1.00  0.00     0.088 C 
BRANCH   9  10
ATOM     10  C1  UNK     1      40.267  14.747  -1.906  1.00  0.00     0.046 C 
BRANCH  10  11
ATOM     11  C3  UNK     1      40.458  13.457  -1.151  1.00  0.00    -0.058 A 
ATOM     12  C6  UNK     1      41.332  12.500  -1.645  1.00  0.00     0.010 A 
ATOM     13  C12 UNK     1      41.509  11.306  -0.945  1.00  0.00     0.037 A 
ATOM     14  C15 UNK     1      40.809  11.082   0.241  1.00  0.00     0.065 A 
ATOM     15  C13 UNK     1      39.932  12.053   0.727  1.00  0.00     0.037 A 
ATOM     16  C7  UNK     1      39.756  13.247   0.028  1.00  0.00     0.010 A 
BRANCH  14  17
ATOM     17  O5  UNK     1      40.983   9.919   0.924  1.00  0.00    -0.361 OA
ATOM     18  H14 UNK     1      41.317  10.122   1.814  1.00  0.00     0.217 HD
ENDBRANCH  14  17
ENDBRANCH  10  11
ENDBRANCH   9  10
ENDBRANCH   7   9
ENDBRANCH   1   7
BRANCH   2  19
ATOM     19  O2  UNK     1      37.750  18.038   1.288  1.00  0.00    -0.360 OA
ATOM     20  H11 UNK     1      38.364  17.445   1.750  1.00  0.00     0.217 HD
ENDBRANCH   2  19
BRANCH   3  21
ATOM     21  O3  UNK     1      40.372  18.415  -2.714  1.00  0.00    -0.360 OA
ATOM     22  H12 UNK     1      40.702  19.120  -3.298  1.00  0.00     0.217 HD
ENDBRANCH   3  21
BRANCH   6  23
ATOM     23  O4  UNK     1      39.125  22.319  -0.284  1.00  0.00    -0.361 OA
ATOM     24  H13 UNK     1      39.065  22.538   0.661  1.00  0.00     0.217 HD
ENDBRANCH   6  23
TORSDOF 8
ENDMDL
MODEL 16
REMARK VINA RESULT:      -7.9      3.463      7.495
REMARK  8 active torsions:
REMARK  status: ('A' for Active; 'I' for Inactive)
REMARK    1  A    between atoms: O2_2  and  C8_13 
REMARK    2  A    between atoms: O3_3  and  C9_14 
REMARK    3  A    between atoms: O4_4  and  C14_19 
REMARK    4  A    between atoms: O5_5  and  C15_20 
REMARK    5  A    between atoms: C1_6  and  C2_7 
REMARK    6  A    between atoms: C1_6  and  C3_8 
REMARK    7  A    between atoms: C2_7  and  C4_9 
REMARK    8  A    between atoms: C4_9  and  C5_10 
ROOT
ATOM      1  C5  UNK     1      40.212  13.673  -1.165  1.00  0.00     0.076 A 
ATOM      2  C8  UNK     1      38.831  13.611  -0.974  1.00  0.00     0.085 A 
ATOM      3  C9  UNK     1      40.853  14.910  -1.222  1.00  0.00     0.085 A 
ATOM      4  C10 UNK     1      38.092  14.787  -0.841  1.00  0.00     0.074 A 
ATOM      5  C11 UNK     1      40.115  16.086  -1.089  1.00  0.00     0.074 A 
ATOM      6  C14 UNK     1      38.734  16.024  -0.899  1.00  0.00     0.071 A 
ENDROOT
BRANCH   1   7
ATOM      7  C4  UNK     1      40.984  12.443  -1.303  1.00  0.00     0.165 C 
ATOM      8  O1  UNK     1      41.513  12.144  -2.391  1.00  0.00    -0.292 OA
BRANCH   7   9
ATOM      9  C2  UNK     1      41.145  11.502  -0.097  1.00  0.00     0.088 C 
BRANCH   9  10
ATOM     10  C1  UNK     1      41.474  12.238   1.204  1.00  0.00     0.046 C 
BRANCH  10  11
ATOM     11  C3  UNK     1      40.593  11.783   2.339  1.00  0.00    -0.058 A 
ATOM     12  C6  UNK     1      40.361  12.637   3.406  1.00  0.00     0.010 A 
ATOM     13  C12 UNK     1      39.545  12.217   4.457  1.00  0.00     0.037 A 
ATOM     14  C15 UNK     1      38.973  10.944   4.429  1.00  0.00     0.065 A 
ATOM     15  C13 UNK     1      39.215  10.094   3.349  1.00  0.00     0.037 A 
ATOM     16  C7  UNK     1      40.030  10.516   2.299  1.00  0.00     0.010 A 
BRANCH  14  17
ATOM     17  O5  UNK     1      38.177  10.534   5.452  1.00  0.00    -0.361 OA
ATOM     18  H14 UNK     1      37.937  11.305   5.994  1.00  0.00     0.217 HD
ENDBRANCH  14  17
ENDBRANCH  10  11
ENDBRANCH   9  10
ENDBRANCH   7   9
ENDBRANCH   1   7
BRANCH   2  19
ATOM     19  O2  UNK     1      38.184  12.413  -0.914  1.00  0.00    -0.360 OA
ATOM     20  H11 UNK     1      37.841  12.253  -0.021  1.00  0.00     0.217 HD
ENDBRANCH   2  19
BRANCH   3  21
ATOM     21  O3  UNK     1      42.201  14.993  -1.407  1.00  0.00    -0.360 OA
ATOM     22  H12 UNK     1      42.450  14.457  -2.180  1.00  0.00     0.217 HD
ENDBRANCH   3  21
BRANCH   6  23
ATOM     23  O4  UNK     1      38.013  17.171  -0.770  1.00  0.00    -0.361 OA
ATOM     24  H13 UNK     1      37.784  17.500  -1.656  1.00  0.00     0.217 HD
ENDBRANCH   6  23
TORSDOF 8
ENDMDL
MODEL 17
REMARK VINA RESULT:      -7.9      3.472      7.294
REMARK  8 active torsions:
REMARK  status: ('A' for Active; 'I' for Inactive)
REMARK    1  A    between atoms: O2_2  and  C8_13 
REMARK    2  A    between atoms: O3_3  and  C9_14 
REMARK    3  A    between atoms: O4_4  and  C14_19 
REMARK    4  A    between atoms: O5_5  and  C15_20 
REMARK    5  A    between atoms: C1_6  and  C2_7 
REMARK    6  A    between atoms: C1_6  and  C3_8 
REMARK    7  A    between atoms: C2_7  and  C4_9 
REMARK    8  A    between atoms: C4_9  and  C5_10 
ROOT
ATOM      1  C5  UNK     1      40.233  13.661  -1.159  1.00  0.00     0.076 A 
ATOM      2  C8  UNK     1      40.861  14.904  -1.238  1.00  0.00     0.085 A 
ATOM      3  C9  UNK     1      38.857  13.587  -0.948  1.00  0.00     0.085 A 
ATOM      4  C10 UNK     1      40.112  16.073  -1.105  1.00  0.00     0.074 A 
ATOM      5  C11 UNK     1      38.107  14.755  -0.815  1.00  0.00     0.074 A 
ATOM      6  C14 UNK     1      38.735  15.999  -0.893  1.00  0.00     0.071 A 
ENDROOT
BRANCH   1   7
ATOM      7  C4  UNK     1      41.018  12.439  -1.299  1.00  0.00     0.165 C 
ATOM      8  O1  UNK     1      41.553  12.149  -2.387  1.00  0.00    -0.292 OA
BRANCH   7   9
ATOM      9  C2  UNK     1      41.185  11.496  -0.096  1.00  0.00     0.088 C 
BRANCH   9  10
ATOM     10  C1  UNK     1      41.506  12.230   1.207  1.00  0.00     0.046 C 
BRANCH  10  11
ATOM     11  C3  UNK     1      40.614  11.779   2.335  1.00  0.00    -0.058 A 
ATOM     12  C6  UNK     1      40.382  12.632   3.404  1.00  0.00     0.010 A 
ATOM     13  C12 UNK     1      39.555  12.214   4.447  1.00  0.00     0.037 A 
ATOM     14  C15 UNK     1      38.971  10.947   4.411  1.00  0.00     0.065 A 
ATOM     15  C13 UNK     1      39.213  10.099   3.330  1.00  0.00     0.037 A 
ATOM     16  C7  UNK     1      40.039  10.517   2.286  1.00  0.00     0.010 A 
BRANCH  14  17
ATOM     17  O5  UNK     1      38.165  10.541   5.428  1.00  0.00    -0.361 OA
ATOM     18  H14 UNK     1      38.706  10.397   6.222  1.00  0.00     0.217 HD
ENDBRANCH  14  17
ENDBRANCH  10  11
ENDBRANCH   9  10
ENDBRANCH   7   9
ENDBRANCH   1   7
BRANCH   2  19
ATOM     19  O2  UNK     1      42.205  15.000  -1.445  1.00  0.00    -0.360 OA
ATOM     20  H11 UNK     1      42.547  15.836  -1.091  1.00  0.00     0.217 HD
ENDBRANCH   2  19
BRANCH   3  21
ATOM     21  O3  UNK     1      38.224  12.382  -0.868  1.00  0.00    -0.360 OA
ATOM     22  H12 UNK     1      38.218  12.086   0.058  1.00  0.00     0.217 HD
ENDBRANCH   3  21
BRANCH   6  23
ATOM     23  O4  UNK     1      38.004  17.139  -0.763  1.00  0.00    -0.361 OA
ATOM     24  H13 UNK     1      38.606  17.903  -0.779  1.00  0.00     0.217 HD
ENDBRANCH   6  23
TORSDOF 8
ENDMDL
MODEL 18
REMARK VINA RESULT:      -7.7      1.638      7.368
REMARK  8 active torsions:
REMARK  status: ('A' for Active; 'I' for Inactive)
REMARK    1  A    between atoms: O2_2  and  C8_13 
REMARK    2  A    between atoms: O3_3  and  C9_14 
REMARK    3  A    between atoms: O4_4  and  C14_19 
REMARK    4  A    between atoms: O5_5  and  C15_20 
REMARK    5  A    between atoms: C1_6  and  C2_7 
REMARK    6  A    between atoms: C1_6  and  C3_8 
REMARK    7  A    between atoms: C2_7  and  C4_9 
REMARK    8  A    between atoms: C4_9  and  C5_10 
ROOT
ATOM      1  C5  UNK     1      39.485  19.596  -1.111  1.00  0.00     0.076 A 
ATOM      2  C8  UNK     1      40.061  20.832  -1.404  1.00  0.00     0.085 A 
ATOM      3  C9  UNK     1      38.739  19.434   0.056  1.00  0.00     0.085 A 
ATOM      4  C10 UNK     1      39.890  21.906  -0.531  1.00  0.00     0.074 A 
ATOM      5  C11 UNK     1      38.567  20.508   0.930  1.00  0.00     0.074 A 
ATOM      6  C14 UNK     1      39.143  21.745   0.636  1.00  0.00     0.071 A 
ENDROOT
BRANCH   1   7
ATOM      7  C4  UNK     1      39.664  18.473  -2.025  1.00  0.00     0.165 C 
ATOM      8  O1  UNK     1      39.670  18.653  -3.258  1.00  0.00    -0.292 OA
BRANCH   7   9
ATOM      9  C2  UNK     1      39.845  17.052  -1.464  1.00  0.00     0.088 C 
BRANCH   9  10
ATOM     10  C1  UNK     1      40.383  16.060  -2.497  1.00  0.00     0.046 C 
BRANCH  10  11
ATOM     11  C3  UNK     1      40.539  14.679  -1.914  1.00  0.00    -0.058 A 
ATOM     12  C6  UNK     1      39.451  14.066  -1.311  1.00  0.00     0.010 A 
ATOM     13  C12 UNK     1      39.595  12.788  -0.771  1.00  0.00     0.037 A 
ATOM     14  C15 UNK     1      40.828  12.137  -0.840  1.00  0.00     0.065 A 
ATOM     15  C13 UNK     1      41.915  12.765  -1.449  1.00  0.00     0.037 A 
ATOM     16  C7  UNK     1      41.769  14.043  -1.989  1.00  0.00     0.010 A 
BRANCH  14  17
ATOM     17  O5  UNK     1      40.968  10.890  -0.315  1.00  0.00    -0.361 OA
ATOM     18  H14 UNK     1      40.273  10.315  -0.677  1.00  0.00     0.217 HD
ENDBRANCH  14  17
ENDBRANCH  10  11
ENDBRANCH   9  10
ENDBRANCH   7   9
ENDBRANCH   1   7
BRANCH   2  19
ATOM     19  O2  UNK     1      40.794  21.012  -2.539  1.00  0.00    -0.360 OA
ATOM     20  H11 UNK     1      40.355  21.641  -3.134  1.00  0.00     0.217 HD
ENDBRANCH   2  19
BRANCH   3  21
ATOM     21  O3  UNK     1      38.167  18.235   0.362  1.00  0.00    -0.360 OA
ATOM     22  H12 UNK     1      38.022  17.733  -0.459  1.00  0.00     0.217 HD
ENDBRANCH   3  21
BRANCH   6  23
ATOM     23  O4  UNK     1      38.977  22.792   1.488  1.00  0.00    -0.361 OA
ATOM     24  H13 UNK     1      38.196  22.625   2.043  1.00  0.00     0.217 HD
ENDBRANCH   6  23
TORSDOF 8
ENDMDL
MODEL 19
REMARK VINA RESULT:      -7.7      1.785      7.752
REMARK  8 active torsions:
REMARK  status: ('A' for Active; 'I' for Inactive)
REMARK    1  A    between atoms: O2_2  and  C8_13 
REMARK    2  A    between atoms: O3_3  and  C9_14 
REMARK    3  A    between atoms: O4_4  and  C14_19 
REMARK    4  A    between atoms: O5_5  and  C15_20 
REMARK    5  A    between atoms: C1_6  and  C2_7 
REMARK    6  A    between atoms: C1_6  and  C3_8 
REMARK    7  A    between atoms: C2_7  and  C4_9 
REMARK    8  A    between atoms: C4_9  and  C5_10 
ROOT
ATOM      1  C5  UNK     1      39.250  20.241  -0.624  1.00  0.00     0.076 A 
ATOM      2  C8  UNK     1      38.811  20.833   0.561  1.00  0.00     0.085 A 
ATOM      3  C9  UNK     1      40.075  20.954  -1.494  1.00  0.00     0.085 A 
ATOM      4  C10 UNK     1      39.197  22.135   0.875  1.00  0.00     0.074 A 
ATOM      5  C11 UNK     1      40.461  22.256  -1.181  1.00  0.00     0.074 A 
ATOM      6  C14 UNK     1      40.022  22.848   0.005  1.00  0.00     0.071 A 
ENDROOT
BRANCH   1   7
ATOM      7  C4  UNK     1      38.846  18.879  -0.951  1.00  0.00     0.165 C 
ATOM      8  O1  UNK     1      37.675  18.628  -1.294  1.00  0.00    -0.292 OA
BRANCH   7   9
ATOM      9  C2  UNK     1      39.873  17.737  -0.870  1.00  0.00     0.088 C 
BRANCH   9  10
ATOM     10  C1  UNK     1      39.971  16.919  -2.160  1.00  0.00     0.046 C 
BRANCH  10  11
ATOM     11  C3  UNK     1      40.269  15.469  -1.879  1.00  0.00    -0.058 A 
ATOM     12  C6  UNK     1      41.543  14.977  -2.113  1.00  0.00     0.010 A 
ATOM     13  C12 UNK     1      41.819  13.634  -1.852  1.00  0.00     0.037 A 
ATOM     14  C15 UNK     1      40.815  12.798  -1.362  1.00  0.00     0.065 A 
ATOM     15  C13 UNK     1      39.536  13.306  -1.131  1.00  0.00     0.037 A 
ATOM     16  C7  UNK     1      39.261  14.648  -1.391  1.00  0.00     0.010 A 
BRANCH  14  17
ATOM     17  O5  UNK     1      41.084  11.490  -1.107  1.00  0.00    -0.361 OA
ATOM     18  H14 UNK     1      41.412  11.407  -0.195  1.00  0.00     0.217 HD
ENDBRANCH  14  17
ENDBRANCH  10  11
ENDBRANCH   9  10
ENDBRANCH   7   9
ENDBRANCH   1   7
BRANCH   2  19
ATOM     19  O2  UNK     1      38.005  20.155   1.426  1.00  0.00    -0.360 OA
ATOM     20  H11 UNK     1      38.532  19.599   2.022  1.00  0.00     0.217 HD
ENDBRANCH   2  19
BRANCH   3  21
ATOM     21  O3  UNK     1      40.515  20.395  -2.657  1.00  0.00    -0.360 OA
ATOM     22  H12 UNK     1      41.256  20.922  -3.003  1.00  0.00     0.217 HD
ENDBRANCH   3  21
BRANCH   6  23
ATOM     23  O4  UNK     1      40.398  24.119   0.310  1.00  0.00    -0.361 OA
ATOM     24  H13 UNK     1      41.062  24.415  -0.336  1.00  0.00     0.217 HD
ENDBRANCH   6  23
TORSDOF 8
ENDMDL
MODEL 20
REMARK VINA RESULT:      -7.0      1.116      1.350
REMARK  8 active torsions:
REMARK  status: ('A' for Active; 'I' for Inactive)
REMARK    1  A    between atoms: O2_2  and  C8_13 
REMARK    2  A    between atoms: O3_3  and  C9_14 
REMARK    3  A    between atoms: O4_4  and  C14_19 
REMARK    4  A    between atoms: O5_5  and  C15_20 
REMARK    5  A    between atoms: C1_6  and  C2_7 
REMARK    6  A    between atoms: C1_6  and  C3_8 
REMARK    7  A    between atoms: C2_7  and  C4_9 
REMARK    8  A    between atoms: C4_9  and  C5_10 
ROOT
ATOM      1  C5  UNK     1      39.984  14.462  -1.304  1.00  0.00     0.076 A 
ATOM      2  C8  UNK     1      41.243  14.368  -1.898  1.00  0.00     0.085 A 
ATOM      3  C9  UNK     1      39.391  13.330  -0.746  1.00  0.00     0.085 A 
ATOM      4  C10 UNK     1      41.907  13.142  -1.935  1.00  0.00     0.074 A 
ATOM      5  C11 UNK     1      40.054  12.104  -0.782  1.00  0.00     0.074 A 
ATOM      6  C14 UNK     1      41.313  12.010  -1.377  1.00  0.00     0.071 A 
ENDROOT
BRANCH   1   7
ATOM      7  C4  UNK     1      39.291  15.745  -1.265  1.00  0.00     0.165 C 
ATOM      8  O1  UNK     1      38.049  15.798  -1.354  1.00  0.00    -0.292 OA
BRANCH   7   9
ATOM      9  C2  UNK     1      40.098  17.046  -1.117  1.00  0.00     0.088 C 
BRANCH   9  10
ATOM     10  C1  UNK     1      39.539  18.201  -1.949  1.00  0.00     0.046 C 
BRANCH  10  11
ATOM     11  C3  UNK     1      39.456  19.475  -1.148  1.00  0.00    -0.058 A 
ATOM     12  C6  UNK     1      38.687  19.507   0.005  1.00  0.00     0.010 A 
ATOM     13  C12 UNK     1      38.610  20.686   0.747  1.00  0.00     0.037 A 
ATOM     14  C15 UNK     1      39.303  21.822   0.325  1.00  0.00     0.065 A 
ATOM     15  C13 UNK     1      40.073  21.777  -0.838  1.00  0.00     0.037 A 
ATOM     16  C7  UNK     1      40.150  20.597  -1.579  1.00  0.00     0.010 A 
BRANCH  14  17
ATOM     17  O5  UNK     1      39.229  22.971   1.048  1.00  0.00    -0.361 OA
ATOM     18  H14 UNK     1      38.662  23.605   0.578  1.00  0.00     0.217 HD
ENDBRANCH  14  17
ENDBRANCH  10  11
ENDBRANCH   9  10
ENDBRANCH   7   9
ENDBRANCH   1   7
BRANCH   2  19
ATOM     19  O2  UNK     1      41.842  15.461  -2.449  1.00  0.00    -0.360 OA
ATOM     20  H11 UNK     1      42.807  15.402  -2.364  1.00  0.00     0.217 HD
ENDBRANCH   2  19
BRANCH   3  21
ATOM     21  O3  UNK     1      38.162  13.400  -0.159  1.00  0.00    -0.360 OA
ATOM     22  H12 UNK     1      37.544  12.826  -0.644  1.00  0.00     0.217 HD
ENDBRANCH   3  21
BRANCH   6  23
ATOM     23  O4  UNK     1      41.960  10.813  -1.414  1.00  0.00    -0.361 OA
ATOM     24  H13 UNK     1      42.871  10.938  -1.098  1.00  0.00     0.217 HD
ENDBRANCH   6  23
TORSDOF 8
ENDMDL
