MODEL 1
REMARK VINA RESULT:      -9.0      0.000      0.000
REMARK  8 active torsions:
REMARK  status: ('A' for Active; 'I' for Inactive)
REMARK    1  A    between atoms: O2_2  and  C8_13 
REMARK    2  A    between atoms: O3_3  and  C9_14 
REMARK    3  A    between atoms: O4_4  and  C14_19 
REMARK    4  A    between atoms: O5_5  and  C15_20 
REMARK    5  A    between atoms: C1_6  and  C2_7 
REMARK    6  A    between atoms: C1_6  and  C3_8 
REMARK    7  A    between atoms: C2_7  and  C4_9 
REMARK    8  A    between atoms: C4_9  and  C5_10 
ROOT
ATOM      1  C5  UNK     1      39.976  14.807  -1.484  1.00  0.00     0.076 A 
ATOM      2  C8  UNK     1      38.782  14.102  -1.334  1.00  0.00     0.085 A 
ATOM      3  C9  UNK     1      41.169  14.267  -1.004  1.00  0.00     0.085 A 
ATOM      4  C10 UNK     1      38.780  12.858  -0.704  1.00  0.00     0.074 A 
ATOM      5  C11 UNK     1      41.168  13.023  -0.374  1.00  0.00     0.074 A 
ATOM      6  C14 UNK     1      39.973  12.318  -0.224  1.00  0.00     0.071 A 
ENDROOT
BRANCH   1   7
ATOM      7  C4  UNK     1      39.976  16.108  -2.144  1.00  0.00     0.165 C 
ATOM      8  O1  UNK     1      40.229  16.203  -3.361  1.00  0.00    -0.292 OA
BRANCH   7   9
ATOM      9  C2  UNK     1      39.665  17.377  -1.333  1.00  0.00     0.088 C 
BRANCH   9  10
ATOM     10  C1  UNK     1      39.750  18.660  -2.162  1.00  0.00     0.046 C 
BRANCH  10  11
ATOM     11  C3  UNK     1      39.639  19.890  -1.298  1.00  0.00    -0.058 A 
ATOM     12  C6  UNK     1      40.333  21.036  -1.651  1.00  0.00     0.010 A 
ATOM     13  C12 UNK     1      40.230  22.175  -0.852  1.00  0.00     0.037 A 
ATOM     14  C15 UNK     1      39.434  22.153   0.294  1.00  0.00     0.065 A 
ATOM     15  C13 UNK     1      38.741  20.992   0.639  1.00  0.00     0.037 A 
ATOM     16  C7  UNK     1      38.844  19.854  -0.161  1.00  0.00     0.010 A 
BRANCH  14  17
ATOM     17  O5  UNK     1      39.332  23.263   1.073  1.00  0.00    -0.361 OA
ATOM     18  H14 UNK     1      39.835  23.121   1.893  1.00  0.00     0.217 HD
ENDBRANCH  14  17
ENDBRANCH  10  11
ENDBRANCH   9  10
ENDBRANCH   7   9
ENDBRANCH   1   7
BRANCH   2  19
ATOM     19  O2  UNK     1      37.604  14.611  -1.797  1.00  0.00    -0.360 OA
ATOM     20  H11 UNK     1      37.542  15.560  -1.604  1.00  0.00     0.217 HD
ENDBRANCH   2  19
BRANCH   3  21
ATOM     21  O3  UNK     1      42.348  14.939  -1.141  1.00  0.00    -0.360 OA
ATOM     22  H12 UNK     1      43.080  14.353  -0.882  1.00  0.00     0.217 HD
ENDBRANCH   3  21
BRANCH   6  23
ATOM     23  O4  UNK     1      39.973  11.105   0.392  1.00  0.00    -0.361 OA
ATOM     24  H13 UNK     1      39.118  10.978   0.839  1.00  0.00     0.217 HD
ENDBRANCH   6  23
TORSDOF 8
ENDMDL
MODEL 2
REMARK VINA RESULT:      -9.0      0.007      1.081
REMARK  8 active torsions:
REMARK  status: ('A' for Active; 'I' for Inactive)
REMARK    1  A    between atoms: O2_2  and  C8_13 
REMARK    2  A    between atoms: O3_3  and  C9_14 
REMARK    3  A    between atoms: O4_4  and  C14_19 
REMARK    4  A    between atoms: O5_5  and  C15_20 
REMARK    5  A    between atoms: C1_6  and  C2_7 
REMARK    6  A    between atoms: C1_6  and  C3_8 
REMARK    7  A    between atoms: C2_7  and  C4_9 
REMARK    8  A    between atoms: C4_9  and  C5_10 
ROOT
ATOM      1  C5  UNK     1      39.975  14.806  -1.485  1.00  0.00     0.076 A 
ATOM      2  C8  UNK     1      38.781  14.101  -1.335  1.00  0.00     0.085 A 
ATOM      3  C9  UNK     1      41.168  14.266  -1.002  1.00  0.00     0.085 A 
ATOM      4  C10 UNK     1      38.779  12.858  -0.703  1.00  0.00     0.074 A 
ATOM      5  C11 UNK     1      41.166  13.023  -0.371  1.00  0.00     0.074 A 
ATOM      6  C14 UNK     1      39.971  12.318  -0.220  1.00  0.00     0.071 A 
ENDROOT
BRANCH   1   7
ATOM      7  C4  UNK     1      39.976  16.105  -2.146  1.00  0.00     0.165 C 
ATOM      8  O1  UNK     1      40.236  16.199  -3.361  1.00  0.00    -0.292 OA
BRANCH   7   9
ATOM      9  C2  UNK     1      39.657  17.375  -1.338  1.00  0.00     0.088 C 
BRANCH   9  10
ATOM     10  C1  UNK     1      39.754  18.658  -2.166  1.00  0.00     0.046 C 
BRANCH  10  11
ATOM     11  C3  UNK     1      39.640  19.888  -1.303  1.00  0.00    -0.058 A 
ATOM     12  C6  UNK     1      38.849  19.851  -0.165  1.00  0.00     0.010 A 
ATOM     13  C12 UNK     1      38.744  20.990   0.635  1.00  0.00     0.037 A 
ATOM     14  C15 UNK     1      39.430  22.153   0.285  1.00  0.00     0.065 A 
ATOM     15  C13 UNK     1      40.222  22.178  -0.864  1.00  0.00     0.037 A 
ATOM     16  C7  UNK     1      40.327  21.039  -1.662  1.00  0.00     0.010 A 
BRANCH  14  17
ATOM     17  O5  UNK     1      39.328  23.263   1.065  1.00  0.00    -0.361 OA
ATOM     18  H14 UNK     1      38.412  23.586   1.036  1.00  0.00     0.217 HD
ENDBRANCH  14  17
ENDBRANCH  10  11
ENDBRANCH   9  10
ENDBRANCH   7   9
ENDBRANCH   1   7
BRANCH   2  19
ATOM     19  O2  UNK     1      37.604  14.609  -1.799  1.00  0.00    -0.360 OA
ATOM     20  H11 UNK     1      37.400  14.253  -2.678  1.00  0.00     0.217 HD
ENDBRANCH   2  19
BRANCH   3  21
ATOM     21  O3  UNK     1      42.346  14.938  -1.139  1.00  0.00    -0.360 OA
ATOM     22  H12 UNK     1      42.579  15.349  -0.289  1.00  0.00     0.217 HD
ENDBRANCH   3  21
BRANCH   6  23
ATOM     23  O4  UNK     1      39.970  11.106   0.397  1.00  0.00    -0.361 OA
ATOM     24  H13 UNK     1      39.516  11.189   1.253  1.00  0.00     0.217 HD
ENDBRANCH   6  23
TORSDOF 8
ENDMDL
MODEL 3
REMARK VINA RESULT:      -8.9      0.010      1.863
REMARK  8 active torsions:
REMARK  status: ('A' for Active; 'I' for Inactive)
REMARK    1  A    between atoms: O2_2  and  C8_13 
REMARK    2  A    between atoms: O3_3  and  C9_14 
REMARK    3  A    between atoms: O4_4  and  C14_19 
REMARK    4  A    between atoms: O5_5  and  C15_20 
REMARK    5  A    between atoms: C1_6  and  C2_7 
REMARK    6  A    between atoms: C1_6  and  C3_8 
REMARK    7  A    between atoms: C2_7  and  C4_9 
REMARK    8  A    between atoms: C4_9  and  C5_10 
ROOT
ATOM      1  C5  UNK     1      39.972  14.808  -1.489  1.00  0.00     0.076 A 
ATOM      2  C8  UNK     1      41.166  14.270  -1.009  1.00  0.00     0.085 A 
ATOM      3  C9  UNK     1      38.778  14.102  -1.335  1.00  0.00     0.085 A 
ATOM      4  C10 UNK     1      41.167  13.027  -0.376  1.00  0.00     0.074 A 
ATOM      5  C11 UNK     1      38.779  12.860  -0.702  1.00  0.00     0.074 A 
ATOM      6  C14 UNK     1      39.974  12.322  -0.223  1.00  0.00     0.071 A 
ENDROOT
BRANCH   1   7
ATOM      7  C4  UNK     1      39.972  16.108  -2.150  1.00  0.00     0.165 C 
ATOM      8  O1  UNK     1      40.235  16.203  -3.365  1.00  0.00    -0.292 OA
BRANCH   7   9
ATOM      9  C2  UNK     1      39.646  17.376  -1.343  1.00  0.00     0.088 C 
BRANCH   9  10
ATOM     10  C1  UNK     1      39.758  18.661  -2.167  1.00  0.00     0.046 C 
BRANCH  10  11
ATOM     11  C3  UNK     1      39.641  19.889  -1.301  1.00  0.00    -0.058 A 
ATOM     12  C6  UNK     1      40.324  21.042  -1.657  1.00  0.00     0.010 A 
ATOM     13  C12 UNK     1      40.216  22.179  -0.856  1.00  0.00     0.037 A 
ATOM     14  C15 UNK     1      39.426  22.149   0.294  1.00  0.00     0.065 A 
ATOM     15  C13 UNK     1      38.744  20.983   0.642  1.00  0.00     0.037 A 
ATOM     16  C7  UNK     1      38.852  19.846  -0.160  1.00  0.00     0.010 A 
BRANCH  14  17
ATOM     17  O5  UNK     1      39.320  23.258   1.075  1.00  0.00    -0.361 OA
ATOM     18  H14 UNK     1      38.809  23.933   0.596  1.00  0.00     0.217 HD
ENDBRANCH  14  17
ENDBRANCH  10  11
ENDBRANCH   9  10
ENDBRANCH   7   9
ENDBRANCH   1   7
BRANCH   2  19
ATOM     19  O2  UNK     1      42.344  14.943  -1.148  1.00  0.00    -0.360 OA
ATOM     20  H11 UNK     1      42.236  15.876  -0.904  1.00  0.00     0.217 HD
ENDBRANCH   2  19
BRANCH   3  21
ATOM     21  O3  UNK     1      37.600  14.610  -1.796  1.00  0.00    -0.360 OA
ATOM     22  H12 UNK     1      36.902  13.940  -1.692  1.00  0.00     0.217 HD
ENDBRANCH   3  21
BRANCH   6  23
ATOM     23  O4  UNK     1      39.974  11.109   0.394  1.00  0.00    -0.361 OA
ATOM     24  H13 UNK     1      40.391  10.456  -0.194  1.00  0.00     0.217 HD
ENDBRANCH   6  23
TORSDOF 8
ENDMDL
MODEL 4
REMARK VINA RESULT:      -8.9      0.026      2.154
REMARK  8 active torsions:
REMARK  status: ('A' for Active; 'I' for Inactive)
REMARK    1  A    between atoms: O2_2  and  C8_13 
REMARK    2  A    between atoms: O3_3  and  C9_14 
REMARK    3  A    between atoms: O4_4  and  C14_19 
REMARK    4  A    between atoms: O5_5  and  C15_20 
REMARK    5  A    between atoms: C1_6  and  C2_7 
REMARK    6  A    between atoms: C1_6  and  C3_8 
REMARK    7  A    between atoms: C2_7  and  C4_9 
REMARK    8  A    between atoms: C4_9  and  C5_10 
ROOT
ATOM      1  C5  UNK     1      39.953  14.796  -1.470  1.00  0.00     0.076 A 
ATOM      2  C8  UNK     1      41.151  14.261  -0.996  1.00  0.00     0.085 A 
ATOM      3  C9  UNK     1      38.761  14.090  -1.308  1.00  0.00     0.085 A 
ATOM      4  C10 UNK     1      41.157  13.019  -0.361  1.00  0.00     0.074 A 
ATOM      5  C11 UNK     1      38.767  12.848  -0.673  1.00  0.00     0.074 A 
ATOM      6  C14 UNK     1      39.965  12.313  -0.199  1.00  0.00     0.071 A 
ENDROOT
BRANCH   1   7
ATOM      7  C4  UNK     1      39.948  16.095  -2.133  1.00  0.00     0.165 C 
ATOM      8  O1  UNK     1      40.182  16.186  -3.354  1.00  0.00    -0.292 OA
BRANCH   7   9
ATOM      9  C2  UNK     1      39.652  17.368  -1.321  1.00  0.00     0.088 C 
BRANCH   9  10
ATOM     10  C1  UNK     1      39.737  18.649  -2.153  1.00  0.00     0.046 C 
BRANCH  10  11
ATOM     11  C3  UNK     1      39.631  19.881  -1.292  1.00  0.00    -0.058 A 
ATOM     12  C6  UNK     1      38.842  19.849  -0.152  1.00  0.00     0.010 A 
ATOM     13  C12 UNK     1      38.744  20.990   0.646  1.00  0.00     0.037 A 
ATOM     14  C15 UNK     1      39.434  22.150   0.293  1.00  0.00     0.065 A 
ATOM     15  C13 UNK     1      40.224  22.168  -0.857  1.00  0.00     0.037 A 
ATOM     16  C7  UNK     1      40.323  21.028  -1.654  1.00  0.00     0.010 A 
BRANCH  14  17
ATOM     17  O5  UNK     1      39.339  23.261   1.071  1.00  0.00    -0.361 OA
ATOM     18  H14 UNK     1      38.934  23.018   1.921  1.00  0.00     0.217 HD
ENDBRANCH  14  17
ENDBRANCH  10  11
ENDBRANCH   9  10
ENDBRANCH   7   9
ENDBRANCH   1   7
BRANCH   2  19
ATOM     19  O2  UNK     1      42.327  14.935  -1.143  1.00  0.00    -0.360 OA
ATOM     20  H11 UNK     1      42.369  15.364  -2.012  1.00  0.00     0.217 HD
ENDBRANCH   2  19
BRANCH   3  21
ATOM     21  O3  UNK     1      37.580  14.595  -1.763  1.00  0.00    -0.360 OA
ATOM     22  H12 UNK     1      37.456  14.330  -2.691  1.00  0.00     0.217 HD
ENDBRANCH   3  21
BRANCH   6  23
ATOM     23  O4  UNK     1      39.971  11.101   0.420  1.00  0.00    -0.361 OA
ATOM     24  H13 UNK     1      39.589  10.438  -0.181  1.00  0.00     0.217 HD
ENDBRANCH   6  23
TORSDOF 8
ENDMDL
MODEL 5
REMARK VINA RESULT:      -8.5      0.956      1.585
REMARK  8 active torsions:
REMARK  status: ('A' for Active; 'I' for Inactive)
REMARK    1  A    between atoms: O2_2  and  C8_13 
REMARK    2  A    between atoms: O3_3  and  C9_14 
REMARK    3  A    between atoms: O4_4  and  C14_19 
REMARK    4  A    between atoms: O5_5  and  C15_20 
REMARK    5  A    between atoms: C1_6  and  C2_7 
REMARK    6  A    between atoms: C1_6  and  C3_8 
REMARK    7  A    between atoms: C2_7  and  C4_9 
REMARK    8  A    between atoms: C4_9  and  C5_10 
ROOT
ATOM      1  C5  UNK     1      40.189  14.237  -1.471  1.00  0.00     0.076 A 
ATOM      2  C8  UNK     1      39.238  13.318  -1.027  1.00  0.00     0.085 A 
ATOM      3  C9  UNK     1      41.494  14.180  -0.984  1.00  0.00     0.085 A 
ATOM      4  C10 UNK     1      39.593  12.342  -0.096  1.00  0.00     0.074 A 
ATOM      5  C11 UNK     1      41.850  13.204  -0.053  1.00  0.00     0.074 A 
ATOM      6  C14 UNK     1      40.899  12.285   0.392  1.00  0.00     0.071 A 
ENDROOT
BRANCH   1   7
ATOM      7  C4  UNK     1      39.816  15.257  -2.445  1.00  0.00     0.165 C 
ATOM      8  O1  UNK     1      39.408  14.934  -3.578  1.00  0.00    -0.292 OA
BRANCH   7   9
ATOM      9  C2  UNK     1      39.930  16.745  -2.076  1.00  0.00     0.088 C 
BRANCH   9  10
ATOM     10  C1  UNK     1      39.110  17.126  -0.841  1.00  0.00     0.046 C 
BRANCH  10  11
ATOM     11  C3  UNK     1      39.113  18.615  -0.608  1.00  0.00    -0.058 A 
ATOM     12  C6  UNK     1      38.435  19.135   0.484  1.00  0.00     0.010 A 
ATOM     13  C12 UNK     1      38.438  20.513   0.700  1.00  0.00     0.037 A 
ATOM     14  C15 UNK     1      39.118  21.356  -0.180  1.00  0.00     0.065 A 
ATOM     15  C13 UNK     1      39.796  20.819  -1.275  1.00  0.00     0.037 A 
ATOM     16  C7  UNK     1      39.794  19.441  -1.490  1.00  0.00     0.010 A 
BRANCH  14  17
ATOM     17  O5  UNK     1      39.122  22.699   0.032  1.00  0.00    -0.361 OA
ATOM     18  H14 UNK     1      38.497  23.118  -0.584  1.00  0.00     0.217 HD
ENDBRANCH  14  17
ENDBRANCH  10  11
ENDBRANCH   9  10
ENDBRANCH   7   9
ENDBRANCH   1   7
BRANCH   2  19
ATOM     19  O2  UNK     1      37.956  13.355  -1.490  1.00  0.00    -0.360 OA
ATOM     20  H11 UNK     1      37.944  13.433  -2.457  1.00  0.00     0.217 HD
ENDBRANCH   2  19
BRANCH   3  21
ATOM     21  O3  UNK     1      42.439  15.068  -1.406  1.00  0.00    -0.360 OA
ATOM     22  H12 UNK     1      42.004  15.904  -1.649  1.00  0.00     0.217 HD
ENDBRANCH   3  21
BRANCH   6  23
ATOM     23  O4  UNK     1      41.246  11.334   1.301  1.00  0.00    -0.361 OA
ATOM     24  H13 UNK     1      42.213  11.331   1.401  1.00  0.00     0.217 HD
ENDBRANCH   6  23
TORSDOF 8
ENDMDL
MODEL 6
REMARK VINA RESULT:      -8.1      1.735      2.490
REMARK  8 active torsions:
REMARK  status: ('A' for Active; 'I' for Inactive)
REMARK    1  A    between atoms: O2_2  and  C8_13 
REMARK    2  A    between atoms: O3_3  and  C9_14 
REMARK    3  A    between atoms: O4_4  and  C14_19 
REMARK    4  A    between atoms: O5_5  and  C15_20 
REMARK    5  A    between atoms: C1_6  and  C2_7 
REMARK    6  A    between atoms: C1_6  and  C3_8 
REMARK    7  A    between atoms: C2_7  and  C4_9 
REMARK    8  A    between atoms: C4_9  and  C5_10 
ROOT
ATOM      1  C5  UNK     1      40.158  13.190  -1.462  1.00  0.00     0.076 A 
ATOM      2  C8  UNK     1      39.081  12.953  -0.609  1.00  0.00     0.085 A 
ATOM      3  C9  UNK     1      41.298  12.391  -1.383  1.00  0.00     0.085 A 
ATOM      4  C10 UNK     1      39.144  11.919   0.324  1.00  0.00     0.074 A 
ATOM      5  C11 UNK     1      41.363  11.356  -0.451  1.00  0.00     0.074 A 
ATOM      6  C14 UNK     1      40.285  11.120   0.403  1.00  0.00     0.071 A 
ENDROOT
BRANCH   1   7
ATOM      7  C4  UNK     1      40.090  14.272  -2.438  1.00  0.00     0.165 C 
ATOM      8  O1  UNK     1      39.239  14.255  -3.348  1.00  0.00    -0.292 OA
BRANCH   7   9
ATOM      9  C2  UNK     1      41.080  15.446  -2.348  1.00  0.00     0.088 C 
BRANCH   9  10
ATOM     10  C1  UNK     1      40.537  16.742  -2.953  1.00  0.00     0.046 C 
BRANCH  10  11
ATOM     11  C3  UNK     1      39.870  17.606  -1.914  1.00  0.00    -0.058 A 
ATOM     12  C6  UNK     1      39.313  17.014  -0.791  1.00  0.00     0.010 A 
ATOM     13  C12 UNK     1      38.696  17.814   0.172  1.00  0.00     0.037 A 
ATOM     14  C15 UNK     1      38.642  19.198  -0.002  1.00  0.00     0.065 A 
ATOM     15  C13 UNK     1      39.206  19.781  -1.137  1.00  0.00     0.037 A 
ATOM     16  C7  UNK     1      39.823  18.981  -2.099  1.00  0.00     0.010 A 
BRANCH  14  17
ATOM     17  O5  UNK     1      38.042  19.978   0.937  1.00  0.00    -0.361 OA
ATOM     18  H14 UNK     1      37.443  19.427   1.468  1.00  0.00     0.217 HD
ENDBRANCH  14  17
ENDBRANCH  10  11
ENDBRANCH   9  10
ENDBRANCH   7   9
ENDBRANCH   1   7
BRANCH   2  19
ATOM     19  O2  UNK     1      37.956  13.722  -0.669  1.00  0.00    -0.360 OA
ATOM     20  H11 UNK     1      37.236  13.315  -0.161  1.00  0.00     0.217 HD
ENDBRANCH   2  19
BRANCH   3  21
ATOM     21  O3  UNK     1      42.362  12.605  -2.209  1.00  0.00    -0.360 OA
ATOM     22  H12 UNK     1      42.690  11.749  -2.534  1.00  0.00     0.217 HD
ENDBRANCH   3  21
BRANCH   6  23
ATOM     23  O4  UNK     1      40.347  10.110   1.314  1.00  0.00    -0.361 OA
ATOM     24  H13 UNK     1      40.986  10.351   2.007  1.00  0.00     0.217 HD
ENDBRANCH   6  23
TORSDOF 8
ENDMDL
MODEL 7
REMARK VINA RESULT:      -8.1      1.734      2.852
REMARK  8 active torsions:
REMARK  status: ('A' for Active; 'I' for Inactive)
REMARK    1  A    between atoms: O2_2  and  C8_13 
REMARK    2  A    between atoms: O3_3  and  C9_14 
REMARK    3  A    between atoms: O4_4  and  C14_19 
REMARK    4  A    between atoms: O5_5  and  C15_20 
REMARK    5  A    between atoms: C1_6  and  C2_7 
REMARK    6  A    between atoms: C1_6  and  C3_8 
REMARK    7  A    between atoms: C2_7  and  C4_9 
REMARK    8  A    between atoms: C4_9  and  C5_10 
ROOT
ATOM      1  C5  UNK     1      40.150  13.194  -1.461  1.00  0.00     0.076 A 
ATOM      2  C8  UNK     1      41.291  12.395  -1.378  1.00  0.00     0.085 A 
ATOM      3  C9  UNK     1      39.071  12.959  -0.608  1.00  0.00     0.085 A 
ATOM      4  C10 UNK     1      41.353  11.363  -0.443  1.00  0.00     0.074 A 
ATOM      5  C11 UNK     1      39.133  11.927   0.327  1.00  0.00     0.074 A 
ATOM      6  C14 UNK     1      40.274  11.128   0.410  1.00  0.00     0.071 A 
ENDROOT
BRANCH   1   7
ATOM      7  C4  UNK     1      40.086  14.274  -2.439  1.00  0.00     0.165 C 
ATOM      8  O1  UNK     1      39.234  14.258  -3.348  1.00  0.00    -0.292 OA
BRANCH   7   9
ATOM      9  C2  UNK     1      41.081  15.444  -2.352  1.00  0.00     0.088 C 
BRANCH   9  10
ATOM     10  C1  UNK     1      40.543  16.741  -2.960  1.00  0.00     0.046 C 
BRANCH  10  11
ATOM     11  C3  UNK     1      39.875  17.607  -1.924  1.00  0.00    -0.058 A 
ATOM     12  C6  UNK     1      39.825  18.979  -2.112  1.00  0.00     0.010 A 
ATOM     13  C12 UNK     1      39.206  19.781  -1.152  1.00  0.00     0.037 A 
ATOM     14  C15 UNK     1      38.646  19.200  -0.014  1.00  0.00     0.065 A 
ATOM     15  C13 UNK     1      38.704  17.817   0.163  1.00  0.00     0.037 A 
ATOM     16  C7  UNK     1      39.322  17.016  -0.797  1.00  0.00     0.010 A 
BRANCH  14  17
ATOM     17  O5  UNK     1      38.041  19.981   0.921  1.00  0.00    -0.361 OA
ATOM     18  H14 UNK     1      37.636  19.411   1.595  1.00  0.00     0.217 HD
ENDBRANCH  14  17
ENDBRANCH  10  11
ENDBRANCH   9  10
ENDBRANCH   7   9
ENDBRANCH   1   7
BRANCH   2  19
ATOM     19  O2  UNK     1      42.356  12.607  -2.201  1.00  0.00    -0.360 OA
ATOM     20  H11 UNK     1      42.734  13.489  -2.053  1.00  0.00     0.217 HD
ENDBRANCH   2  19
BRANCH   3  21
ATOM     21  O3  UNK     1      37.947  13.728  -0.672  1.00  0.00    -0.360 OA
ATOM     22  H12 UNK     1      38.008  14.436  -0.007  1.00  0.00     0.217 HD
ENDBRANCH   3  21
BRANCH   6  23
ATOM     23  O4  UNK     1      40.334  10.120   1.322  1.00  0.00    -0.361 OA
ATOM     24  H13 UNK     1      39.448   9.984   1.700  1.00  0.00     0.217 HD
ENDBRANCH   6  23
TORSDOF 8
ENDMDL
MODEL 8
REMARK VINA RESULT:      -8.1      2.087      7.049
REMARK  8 active torsions:
REMARK  status: ('A' for Active; 'I' for Inactive)
REMARK    1  A    between atoms: O2_2  and  C8_13 
REMARK    2  A    between atoms: O3_3  and  C9_14 
REMARK    3  A    between atoms: O4_4  and  C14_19 
REMARK    4  A    between atoms: O5_5  and  C15_20 
REMARK    5  A    between atoms: C1_6  and  C2_7 
REMARK    6  A    between atoms: C1_6  and  C3_8 
REMARK    7  A    between atoms: C2_7  and  C4_9 
REMARK    8  A    between atoms: C4_9  and  C5_10 
ROOT
ATOM      1  C5  UNK     1      39.832  16.742  -2.133  1.00  0.00     0.076 A 
ATOM      2  C8  UNK     1      39.132  16.815  -0.928  1.00  0.00     0.085 A 
ATOM      3  C9  UNK     1      40.168  17.911  -2.816  1.00  0.00     0.085 A 
ATOM      4  C10 UNK     1      38.768  18.057  -0.408  1.00  0.00     0.074 A 
ATOM      5  C11 UNK     1      39.805  19.152  -2.295  1.00  0.00     0.074 A 
ATOM      6  C14 UNK     1      39.104  19.226  -1.091  1.00  0.00     0.071 A 
ENDROOT
BRANCH   1   7
ATOM      7  C4  UNK     1      40.212  15.443  -2.676  1.00  0.00     0.165 C 
ATOM      8  O1  UNK     1      39.368  14.717  -3.237  1.00  0.00    -0.292 OA
BRANCH   7   9
ATOM      9  C2  UNK     1      41.667  14.960  -2.555  1.00  0.00     0.088 C 
BRANCH   9  10
ATOM     10  C1  UNK     1      42.108  14.725  -1.109  1.00  0.00     0.046 C 
BRANCH  10  11
ATOM     11  C3  UNK     1      41.577  13.421  -0.569  1.00  0.00    -0.058 A 
ATOM     12  C6  UNK     1      40.998  13.390   0.690  1.00  0.00     0.010 A 
ATOM     13  C12 UNK     1      40.507  12.183   1.189  1.00  0.00     0.037 A 
ATOM     14  C15 UNK     1      40.603  11.021   0.423  1.00  0.00     0.065 A 
ATOM     15  C13 UNK     1      41.188  11.066  -0.843  1.00  0.00     0.037 A 
ATOM     16  C7  UNK     1      41.679  12.273  -1.341  1.00  0.00     0.010 A 
BRANCH  14  17
ATOM     17  O5  UNK     1      40.122   9.845   0.909  1.00  0.00    -0.361 OA
ATOM     18  H14 UNK     1      40.457   9.716   1.812  1.00  0.00     0.217 HD
ENDBRANCH  14  17
ENDBRANCH  10  11
ENDBRANCH   9  10
ENDBRANCH   7   9
ENDBRANCH   1   7
BRANCH   2  19
ATOM     19  O2  UNK     1      38.793  15.686  -0.244  1.00  0.00    -0.360 OA
ATOM     20  H11 UNK     1      39.342  15.589   0.551  1.00  0.00     0.217 HD
ENDBRANCH   2  19
BRANCH   3  21
ATOM     21  O3  UNK     1      40.853  17.861  -3.994  1.00  0.00    -0.360 OA
ATOM     22  H12 UNK     1      41.030  18.768  -4.297  1.00  0.00     0.217 HD
ENDBRANCH   3  21
BRANCH   6  23
ATOM     23  O4  UNK     1      38.749  20.437  -0.583  1.00  0.00    -0.361 OA
ATOM     24  H13 UNK     1      39.515  21.035  -0.630  1.00  0.00     0.217 HD
ENDBRANCH   6  23
TORSDOF 8
ENDMDL
MODEL 9
REMARK VINA RESULT:      -8.1      2.091      7.094
REMARK  8 active torsions:
REMARK  status: ('A' for Active; 'I' for Inactive)
REMARK    1  A    between atoms: O2_2  and  C8_13 
REMARK    2  A    between atoms: O3_3  and  C9_14 
REMARK    3  A    between atoms: O4_4  and  C14_19 
REMARK    4  A    between atoms: O5_5  and  C15_20 
REMARK    5  A    between atoms: C1_6  and  C2_7 
REMARK    6  A    between atoms: C1_6  and  C3_8 
REMARK    7  A    between atoms: C2_7  and  C4_9 
REMARK    8  A    between atoms: C4_9  and  C5_10 
ROOT
ATOM      1  C5  UNK     1      39.823  16.735  -2.133  1.00  0.00     0.076 A 
ATOM      2  C8  UNK     1      40.158  17.909  -2.809  1.00  0.00     0.085 A 
ATOM      3  C9  UNK     1      39.121  16.801  -0.930  1.00  0.00     0.085 A 
ATOM      4  C10 UNK     1      39.792  19.147  -2.281  1.00  0.00     0.074 A 
ATOM      5  C11 UNK     1      38.754  18.038  -0.402  1.00  0.00     0.074 A 
ATOM      6  C14 UNK     1      39.089  19.212  -1.078  1.00  0.00     0.071 A 
ENDROOT
BRANCH   1   7
ATOM      7  C4  UNK     1      40.207  15.441  -2.686  1.00  0.00     0.165 C 
ATOM      8  O1  UNK     1      39.364  14.718  -3.252  1.00  0.00    -0.292 OA
BRANCH   7   9
ATOM      9  C2  UNK     1      41.663  14.961  -2.568  1.00  0.00     0.088 C 
BRANCH   9  10
ATOM     10  C1  UNK     1      42.107  14.727  -1.122  1.00  0.00     0.046 C 
BRANCH  10  11
ATOM     11  C3  UNK     1      41.583  13.421  -0.582  1.00  0.00    -0.058 A 
ATOM     12  C6  UNK     1      41.685  12.274  -1.354  1.00  0.00     0.010 A 
ATOM     13  C12 UNK     1      41.201  11.065  -0.854  1.00  0.00     0.037 A 
ATOM     14  C15 UNK     1      40.617  11.018   0.412  1.00  0.00     0.065 A 
ATOM     15  C13 UNK     1      40.520  12.180   1.179  1.00  0.00     0.037 A 
ATOM     16  C7  UNK     1      41.006  13.388   0.679  1.00  0.00     0.010 A 
BRANCH  14  17
ATOM     17  O5  UNK     1      40.146   9.839   0.901  1.00  0.00    -0.361 OA
ATOM     18  H14 UNK     1      39.412   9.536   0.340  1.00  0.00     0.217 HD
ENDBRANCH  14  17
ENDBRANCH  10  11
ENDBRANCH   9  10
ENDBRANCH   7   9
ENDBRANCH   1   7
BRANCH   2  19
ATOM     19  O2  UNK     1      40.844  17.868  -3.986  1.00  0.00    -0.360 OA
ATOM     20  H11 UNK     1      41.303  17.019  -4.086  1.00  0.00     0.217 HD
ENDBRANCH   2  19
BRANCH   3  21
ATOM     21  O3  UNK     1      38.782  15.666  -0.254  1.00  0.00    -0.360 OA
ATOM     22  H12 UNK     1      39.417  15.526   0.470  1.00  0.00     0.217 HD
ENDBRANCH   3  21
BRANCH   6  23
ATOM     23  O4  UNK     1      38.732  20.419  -0.563  1.00  0.00    -0.361 OA
ATOM     24  H13 UNK     1      39.310  20.623   0.193  1.00  0.00     0.217 HD
ENDBRANCH   6  23
TORSDOF 8
ENDMDL
MODEL 10
REMARK VINA RESULT:      -8.1      2.092      7.018
REMARK  8 active torsions:
REMARK  status: ('A' for Active; 'I' for Inactive)
REMARK    1  A    between atoms: O2_2  and  C8_13 
REMARK    2  A    between atoms: O3_3  and  C9_14 
REMARK    3  A    between atoms: O4_4  and  C14_19 
REMARK    4  A    between atoms: O5_5  and  C15_20 
REMARK    5  A    between atoms: C1_6  and  C2_7 
REMARK    6  A    between atoms: C1_6  and  C3_8 
REMARK    7  A    between atoms: C2_7  and  C4_9 
REMARK    8  A    between atoms: C4_9  and  C5_10 
ROOT
ATOM      1  C5  UNK     1      39.816  16.727  -2.133  1.00  0.00     0.076 A 
ATOM      2  C8  UNK     1      39.105  16.797  -0.935  1.00  0.00     0.085 A 
ATOM      3  C9  UNK     1      40.169  17.898  -2.804  1.00  0.00     0.085 A 
ATOM      4  C10 UNK     1      38.747  18.038  -0.408  1.00  0.00     0.074 A 
ATOM      5  C11 UNK     1      39.812  19.139  -2.277  1.00  0.00     0.074 A 
ATOM      6  C14 UNK     1      39.100  19.209  -1.079  1.00  0.00     0.071 A 
ENDROOT
BRANCH   1   7
ATOM      7  C4  UNK     1      40.191  15.429  -2.683  1.00  0.00     0.165 C 
ATOM      8  O1  UNK     1      39.344  14.711  -3.250  1.00  0.00    -0.292 OA
BRANCH   7   9
ATOM      9  C2  UNK     1      41.643  14.937  -2.561  1.00  0.00     0.088 C 
BRANCH   9  10
ATOM     10  C1  UNK     1      42.085  14.712  -1.114  1.00  0.00     0.046 C 
BRANCH  10  11
ATOM     11  C3  UNK     1      41.573  13.402  -0.572  1.00  0.00    -0.058 A 
ATOM     12  C6  UNK     1      41.697  12.253  -1.338  1.00  0.00     0.010 A 
ATOM     13  C12 UNK     1      41.224  11.040  -0.836  1.00  0.00     0.037 A 
ATOM     14  C15 UNK     1      40.629  10.992   0.426  1.00  0.00     0.065 A 
ATOM     15  C13 UNK     1      40.510  12.156   1.185  1.00  0.00     0.037 A 
ATOM     16  C7  UNK     1      40.985  13.367   0.684  1.00  0.00     0.010 A 
BRANCH  14  17
ATOM     17  O5  UNK     1      40.169   9.809   0.915  1.00  0.00    -0.361 OA
ATOM     18  H14 UNK     1      40.845   9.423   1.496  1.00  0.00     0.217 HD
ENDBRANCH  14  17
ENDBRANCH  10  11
ENDBRANCH   9  10
ENDBRANCH   7   9
ENDBRANCH   1   7
BRANCH   2  19
ATOM     19  O2  UNK     1      38.750  15.666  -0.263  1.00  0.00    -0.360 OA
ATOM     20  H11 UNK     1      37.995  15.838   0.322  1.00  0.00     0.217 HD
ENDBRANCH   2  19
BRANCH   3  21
ATOM     21  O3  UNK     1      40.865  17.852  -3.976  1.00  0.00    -0.360 OA
ATOM     22  H12 UNK     1      40.351  18.300  -4.669  1.00  0.00     0.217 HD
ENDBRANCH   3  21
BRANCH   6  23
ATOM     23  O4  UNK     1      38.751  20.420  -0.566  1.00  0.00    -0.361 OA
ATOM     24  H13 UNK     1      39.497  20.771  -0.051  1.00  0.00     0.217 HD
ENDBRANCH   6  23
TORSDOF 8
ENDMDL
MODEL 11
REMARK VINA RESULT:      -8.0      3.430      7.280
REMARK  8 active torsions:
REMARK  status: ('A' for Active; 'I' for Inactive)
REMARK    1  A    between atoms: O2_2  and  C8_13 
REMARK    2  A    between atoms: O3_3  and  C9_14 
REMARK    3  A    between atoms: O4_4  and  C14_19 
REMARK    4  A    between atoms: O5_5  and  C15_20 
REMARK    5  A    between atoms: C1_6  and  C2_7 
REMARK    6  A    between atoms: C1_6  and  C3_8 
REMARK    7  A    between atoms: C2_7  and  C4_9 
REMARK    8  A    between atoms: C4_9  and  C5_10 
ROOT
ATOM      1  C5  UNK     1      40.220  13.721  -1.154  1.00  0.00     0.076 A 
ATOM      2  C8  UNK     1      38.834  13.671  -1.008  1.00  0.00     0.085 A 
ATOM      3  C9  UNK     1      40.875  14.952  -1.175  1.00  0.00     0.085 A 
ATOM      4  C10 UNK     1      38.103  14.852  -0.882  1.00  0.00     0.074 A 
ATOM      5  C11 UNK     1      40.145  16.133  -1.049  1.00  0.00     0.074 A 
ATOM      6  C14 UNK     1      38.758  16.083  -0.902  1.00  0.00     0.071 A 
ENDROOT
BRANCH   1   7
ATOM      7  C4  UNK     1      40.984  12.485  -1.285  1.00  0.00     0.165 C 
ATOM      8  O1  UNK     1      41.516  12.179  -2.370  1.00  0.00    -0.292 OA
BRANCH   7   9
ATOM      9  C2  UNK     1      41.133  11.546  -0.076  1.00  0.00     0.088 C 
BRANCH   9  10
ATOM     10  C1  UNK     1      41.444  12.285   1.227  1.00  0.00     0.046 C 
BRANCH  10  11
ATOM     11  C3  UNK     1      40.570  11.810   2.359  1.00  0.00    -0.058 A 
ATOM     12  C6  UNK     1      40.349  12.642   3.446  1.00  0.00     0.010 A 
ATOM     13  C12 UNK     1      39.540  12.202   4.494  1.00  0.00     0.037 A 
ATOM     14  C15 UNK     1      38.962  10.932   4.443  1.00  0.00     0.065 A 
ATOM     15  C13 UNK     1      39.193  10.105   3.344  1.00  0.00     0.037 A 
ATOM     16  C7  UNK     1      40.001  10.546   2.296  1.00  0.00     0.010 A 
BRANCH  14  17
ATOM     17  O5  UNK     1      38.172  10.504   5.464  1.00  0.00    -0.361 OA
ATOM     18  H14 UNK     1      38.518   9.659   5.797  1.00  0.00     0.217 HD
ENDBRANCH  14  17
ENDBRANCH  10  11
ENDBRANCH   9  10
ENDBRANCH   7   9
ENDBRANCH   1   7
BRANCH   2  19
ATOM     19  O2  UNK     1      38.174  12.479  -0.985  1.00  0.00    -0.360 OA
ATOM     20  H11 UNK     1      38.775  11.750  -1.205  1.00  0.00     0.217 HD
ENDBRANCH   2  19
BRANCH   3  21
ATOM     21  O3  UNK     1      42.230  15.023  -1.316  1.00  0.00    -0.360 OA
ATOM     22  H12 UNK     1      42.490  14.549  -2.125  1.00  0.00     0.217 HD
ENDBRANCH   3  21
BRANCH   6  23
ATOM     23  O4  UNK     1      38.045  17.236  -0.780  1.00  0.00    -0.361 OA
ATOM     24  H13 UNK     1      37.316  17.091  -0.153  1.00  0.00     0.217 HD
ENDBRANCH   6  23
TORSDOF 8
ENDMDL
MODEL 12
REMARK VINA RESULT:      -8.0      1.665      7.520
REMARK  8 active torsions:
REMARK  status: ('A' for Active; 'I' for Inactive)
REMARK    1  A    between atoms: O2_2  and  C8_13 
REMARK    2  A    between atoms: O3_3  and  C9_14 
REMARK    3  A    between atoms: O4_4  and  C14_19 
REMARK    4  A    between atoms: O5_5  and  C15_20 
REMARK    5  A    between atoms: C1_6  and  C2_7 
REMARK    6  A    between atoms: C1_6  and  C3_8 
REMARK    7  A    between atoms: C2_7  and  C4_9 
REMARK    8  A    between atoms: C4_9  and  C5_10 
ROOT
ATOM      1  C5  UNK     1      39.090  18.186  -0.726  1.00  0.00     0.076 A 
ATOM      2  C8  UNK     1      38.426  18.779   0.348  1.00  0.00     0.085 A 
ATOM      3  C9  UNK     1      39.739  18.982  -1.670  1.00  0.00     0.085 A 
ATOM      4  C10 UNK     1      38.411  20.168   0.477  1.00  0.00     0.074 A 
ATOM      5  C11 UNK     1      39.725  20.370  -1.541  1.00  0.00     0.074 A 
ATOM      6  C14 UNK     1      39.060  20.964  -0.467  1.00  0.00     0.071 A 
ENDROOT
BRANCH   1   7
ATOM      7  C4  UNK     1      39.106  16.734  -0.860  1.00  0.00     0.165 C 
ATOM      8  O1  UNK     1      38.041  16.094  -0.960  1.00  0.00    -0.292 OA
BRANCH   7   9
ATOM      9  C2  UNK     1      40.448  15.982  -0.875  1.00  0.00     0.088 C 
BRANCH   9  10
ATOM     10  C1  UNK     1      40.457  14.782  -1.824  1.00  0.00     0.046 C 
BRANCH  10  11
ATOM     11  C3  UNK     1      40.587  13.480  -1.075  1.00  0.00    -0.058 A 
ATOM     12  C6  UNK     1      39.968  13.338   0.157  1.00  0.00     0.010 A 
ATOM     13  C12 UNK     1      40.087  12.133   0.850  1.00  0.00     0.037 A 
ATOM     14  C15 UNK     1      40.827  11.084   0.302  1.00  0.00     0.065 A 
ATOM     15  C13 UNK     1      41.445  11.240  -0.938  1.00  0.00     0.037 A 
ATOM     16  C7  UNK     1      41.324  12.445  -1.631  1.00  0.00     0.010 A 
BRANCH  14  17
ATOM     17  O5  UNK     1      40.942   9.909   0.977  1.00  0.00    -0.361 OA
ATOM     18  H14 UNK     1      40.143   9.377   0.824  1.00  0.00     0.217 HD
ENDBRANCH  14  17
ENDBRANCH  10  11
ENDBRANCH   9  10
ENDBRANCH   7   9
ENDBRANCH   1   7
BRANCH   2  19
ATOM     19  O2  UNK     1      37.786  18.021   1.282  1.00  0.00    -0.360 OA
ATOM     20  H11 UNK     1      37.017  17.575   0.893  1.00  0.00     0.217 HD
ENDBRANCH   2  19
BRANCH   3  21
ATOM     21  O3  UNK     1      40.395  18.422  -2.726  1.00  0.00    -0.360 OA
ATOM     22  H12 UNK     1      41.354  18.501  -2.584  1.00  0.00     0.217 HD
ENDBRANCH   3  21
BRANCH   6  23
ATOM     23  O4  UNK     1      39.045  22.319  -0.342  1.00  0.00    -0.361 OA
ATOM     24  H13 UNK     1      39.892  22.610   0.036  1.00  0.00     0.217 HD
ENDBRANCH   6  23
TORSDOF 8
ENDMDL
MODEL 13
REMARK VINA RESULT:      -8.0      1.667      7.621
REMARK  8 active torsions:
REMARK  status: ('A' for Active; 'I' for Inactive)
REMARK    1  A    between atoms: O2_2  and  C8_13 
REMARK    2  A    between atoms: O3_3  and  C9_14 
REMARK    3  A    between atoms: O4_4  and  C14_19 
REMARK    4  A    between atoms: O5_5  and  C15_20 
REMARK    5  A    between atoms: C1_6  and  C2_7 
REMARK    6  A    between atoms: C1_6  and  C3_8 
REMARK    7  A    between atoms: C2_7  and  C4_9 
REMARK    8  A    between atoms: C4_9  and  C5_10 
ROOT
ATOM      1  C5  UNK     1      39.087  18.181  -0.709  1.00  0.00     0.076 A 
ATOM      2  C8  UNK     1      39.742  18.976  -1.650  1.00  0.00     0.085 A 
ATOM      3  C9  UNK     1      38.423  18.774   0.364  1.00  0.00     0.085 A 
ATOM      4  C10 UNK     1      39.732  20.364  -1.517  1.00  0.00     0.074 A 
ATOM      5  C11 UNK     1      38.413  20.162   0.497  1.00  0.00     0.074 A 
ATOM      6  C14 UNK     1      39.068  20.958  -0.444  1.00  0.00     0.071 A 
ENDROOT
BRANCH   1   7
ATOM      7  C4  UNK     1      39.097  16.729  -0.849  1.00  0.00     0.165 C 
ATOM      8  O1  UNK     1      38.030  16.094  -0.958  1.00  0.00    -0.292 OA
BRANCH   7   9
ATOM      9  C2  UNK     1      40.435  15.971  -0.861  1.00  0.00     0.088 C 
BRANCH   9  10
ATOM     10  C1  UNK     1      40.441  14.769  -1.808  1.00  0.00     0.046 C 
BRANCH  10  11
ATOM     11  C3  UNK     1      40.576  13.469  -1.058  1.00  0.00    -0.058 A 
ATOM     12  C6  UNK     1      39.967  13.330   0.180  1.00  0.00     0.010 A 
ATOM     13  C12 UNK     1      40.091  12.126   0.874  1.00  0.00     0.037 A 
ATOM     14  C15 UNK     1      40.826  11.076   0.323  1.00  0.00     0.065 A 
ATOM     15  C13 UNK     1      41.435  11.229  -0.923  1.00  0.00     0.037 A 
ATOM     16  C7  UNK     1      41.309  12.432  -1.617  1.00  0.00     0.010 A 
BRANCH  14  17
ATOM     17  O5  UNK     1      40.947   9.902   0.999  1.00  0.00    -0.361 OA
ATOM     18  H14 UNK     1      41.890   9.687   1.094  1.00  0.00     0.217 HD
ENDBRANCH  14  17
ENDBRANCH  10  11
ENDBRANCH   9  10
ENDBRANCH   7   9
ENDBRANCH   1   7
BRANCH   2  19
ATOM     19  O2  UNK     1      40.397  18.417  -2.707  1.00  0.00    -0.360 OA
ATOM     20  H11 UNK     1      40.066  18.778  -3.545  1.00  0.00     0.217 HD
ENDBRANCH   2  19
BRANCH   3  21
ATOM     21  O3  UNK     1      37.776  18.015   1.294  1.00  0.00    -0.360 OA
ATOM     22  H12 UNK     1      37.060  17.521   0.859  1.00  0.00     0.217 HD
ENDBRANCH   3  21
BRANCH   6  23
ATOM     23  O4  UNK     1      39.059  22.312  -0.313  1.00  0.00    -0.361 OA
ATOM     24  H13 UNK     1      38.649  22.544   0.538  1.00  0.00     0.217 HD
ENDBRANCH   6  23
TORSDOF 8
ENDMDL
MODEL 14
REMARK VINA RESULT:      -8.0      3.426      7.467
REMARK  8 active torsions:
REMARK  status: ('A' for Active; 'I' for Inactive)
REMARK    1  A    between atoms: O2_2  and  C8_13 
REMARK    2  A    between atoms: O3_3  and  C9_14 
REMARK    3  A    between atoms: O4_4  and  C14_19 
REMARK    4  A    between atoms: O5_5  and  C15_20 
REMARK    5  A    between atoms: C1_6  and  C2_7 
REMARK    6  A    between atoms: C1_6  and  C3_8 
REMARK    7  A    between atoms: C2_7  and  C4_9 
REMARK    8  A    between atoms: C4_9  and  C5_10 
ROOT
ATOM      1  C5  UNK     1      40.216  13.734  -1.166  1.00  0.00     0.076 A 
ATOM      2  C8  UNK     1      40.863  14.969  -1.173  1.00  0.00     0.085 A 
ATOM      3  C9  UNK     1      38.829  13.674  -1.027  1.00  0.00     0.085 A 
ATOM      4  C10 UNK     1      40.124  16.145  -1.041  1.00  0.00     0.074 A 
ATOM      5  C11 UNK     1      38.089  14.848  -0.896  1.00  0.00     0.074 A 
ATOM      6  C14 UNK     1      38.737  16.085  -0.902  1.00  0.00     0.071 A 
ENDROOT
BRANCH   1   7
ATOM      7  C4  UNK     1      40.990  12.505  -1.304  1.00  0.00     0.165 C 
ATOM      8  O1  UNK     1      41.534  12.217  -2.388  1.00  0.00    -0.292 OA
BRANCH   7   9
ATOM      9  C2  UNK     1      41.135  11.553  -0.105  1.00  0.00     0.088 C 
BRANCH   9  10
ATOM     10  C1  UNK     1      41.469  12.275   1.202  1.00  0.00     0.046 C 
BRANCH  10  11
ATOM     11  C3  UNK     1      40.588  11.812   2.334  1.00  0.00    -0.058 A 
ATOM     12  C6  UNK     1      40.360  12.658   3.409  1.00  0.00     0.010 A 
ATOM     13  C12 UNK     1      39.544  12.230   4.457  1.00  0.00     0.037 A 
ATOM     14  C15 UNK     1      38.968  10.959   4.419  1.00  0.00     0.065 A 
ATOM     15  C13 UNK     1      39.207  10.118   3.331  1.00  0.00     0.037 A 
ATOM     16  C7  UNK     1      40.021  10.547   2.283  1.00  0.00     0.010 A 
BRANCH  14  17
ATOM     17  O5  UNK     1      38.172  10.542   5.440  1.00  0.00    -0.361 OA
ATOM     18  H14 UNK     1      37.455   9.995   5.078  1.00  0.00     0.217 HD
ENDBRANCH  14  17
ENDBRANCH  10  11
ENDBRANCH   9  10
ENDBRANCH   7   9
ENDBRANCH   1   7
BRANCH   2  19
ATOM     19  O2  UNK     1      42.217  15.051  -1.308  1.00  0.00    -0.360 OA
ATOM     20  H11 UNK     1      42.662  14.686  -0.526  1.00  0.00     0.217 HD
ENDBRANCH   2  19
BRANCH   3  21
ATOM     21  O3  UNK     1      38.177  12.476  -1.019  1.00  0.00    -0.360 OA
ATOM     22  H12 UNK     1      37.403  12.540  -0.433  1.00  0.00     0.217 HD
ENDBRANCH   3  21
BRANCH   6  23
ATOM     23  O4  UNK     1      38.015  17.231  -0.773  1.00  0.00    -0.361 OA
ATOM     24  H13 UNK     1      38.617  17.958  -0.538  1.00  0.00     0.217 HD
ENDBRANCH   6  23
TORSDOF 8
ENDMDL
MODEL 15
REMARK VINA RESULT:      -7.7      1.651      7.427
REMARK  8 active torsions:
REMARK  status: ('A' for Active; 'I' for Inactive)
REMARK    1  A    between atoms: O2_2  and  C8_13 
REMARK    2  A    between atoms: O3_3  and  C9_14 
REMARK    3  A    between atoms: O4_4  and  C14_19 
REMARK    4  A    between atoms: O5_5  and  C15_20 
REMARK    5  A    between atoms: C1_6  and  C2_7 
REMARK    6  A    between atoms: C1_6  and  C3_8 
REMARK    7  A    between atoms: C2_7  and  C4_9 
REMARK    8  A    between atoms: C4_9  and  C5_10 
ROOT
ATOM      1  C5  UNK     1      39.488  19.599  -1.110  1.00  0.00     0.076 A 
ATOM      2  C8  UNK     1      38.741  19.433   0.057  1.00  0.00     0.085 A 
ATOM      3  C9  UNK     1      40.063  20.836  -1.400  1.00  0.00     0.085 A 
ATOM      4  C10 UNK     1      38.569  20.505   0.933  1.00  0.00     0.074 A 
ATOM      5  C11 UNK     1      39.891  21.908  -0.524  1.00  0.00     0.074 A 
ATOM      6  C14 UNK     1      39.144  21.742   0.643  1.00  0.00     0.071 A 
ENDROOT
BRANCH   1   7
ATOM      7  C4  UNK     1      39.667  18.477  -2.025  1.00  0.00     0.165 C 
ATOM      8  O1  UNK     1      39.677  18.659  -3.258  1.00  0.00    -0.292 OA
BRANCH   7   9
ATOM      9  C2  UNK     1      39.845  17.055  -1.466  1.00  0.00     0.088 C 
BRANCH   9  10
ATOM     10  C1  UNK     1      40.321  16.049  -2.516  1.00  0.00     0.046 C 
BRANCH  10  11
ATOM     11  C3  UNK     1      40.499  14.673  -1.927  1.00  0.00    -0.058 A 
ATOM     12  C6  UNK     1      39.416  14.037  -1.340  1.00  0.00     0.010 A 
ATOM     13  C12 UNK     1      39.581  12.763  -0.795  1.00  0.00     0.037 A 
ATOM     14  C15 UNK     1      40.829  12.140  -0.844  1.00  0.00     0.065 A 
ATOM     15  C13 UNK     1      41.911  12.791  -1.438  1.00  0.00     0.037 A 
ATOM     16  C7  UNK     1      41.745  14.064  -1.982  1.00  0.00     0.010 A 
BRANCH  14  17
ATOM     17  O5  UNK     1      40.990  10.897  -0.314  1.00  0.00    -0.361 OA
ATOM     18  H14 UNK     1      40.904  10.953   0.652  1.00  0.00     0.217 HD
ENDBRANCH  14  17
ENDBRANCH  10  11
ENDBRANCH   9  10
ENDBRANCH   7   9
ENDBRANCH   1   7
BRANCH   2  19
ATOM     19  O2  UNK     1      38.171  18.233   0.360  1.00  0.00    -0.360 OA
ATOM     20  H11 UNK     1      37.204  18.307   0.375  1.00  0.00     0.217 HD
ENDBRANCH   2  19
BRANCH   3  21
ATOM     21  O3  UNK     1      40.797  21.019  -2.534  1.00  0.00    -0.360 OA
ATOM     22  H12 UNK     1      40.406  21.744  -3.052  1.00  0.00     0.217 HD
ENDBRANCH   3  21
BRANCH   6  23
ATOM     23  O4  UNK     1      38.976  22.788   1.497  1.00  0.00    -0.361 OA
ATOM     24  H13 UNK     1      39.424  22.585   2.336  1.00  0.00     0.217 HD
ENDBRANCH   6  23
TORSDOF 8
ENDMDL
MODEL 16
REMARK VINA RESULT:      -7.7      1.659      7.543
REMARK  8 active torsions:
REMARK  status: ('A' for Active; 'I' for Inactive)
REMARK    1  A    between atoms: O2_2  and  C8_13 
REMARK    2  A    between atoms: O3_3  and  C9_14 
REMARK    3  A    between atoms: O4_4  and  C14_19 
REMARK    4  A    between atoms: O5_5  and  C15_20 
REMARK    5  A    between atoms: C1_6  and  C2_7 
REMARK    6  A    between atoms: C1_6  and  C3_8 
REMARK    7  A    between atoms: C2_7  and  C4_9 
REMARK    8  A    between atoms: C4_9  and  C5_10 
ROOT
ATOM      1  C5  UNK     1      39.493  19.615  -1.130  1.00  0.00     0.076 A 
ATOM      2  C8  UNK     1      40.063  20.853  -1.426  1.00  0.00     0.085 A 
ATOM      3  C9  UNK     1      38.753  19.449   0.040  1.00  0.00     0.085 A 
ATOM      4  C10 UNK     1      39.893  21.926  -0.551  1.00  0.00     0.074 A 
ATOM      5  C11 UNK     1      38.583  20.521   0.916  1.00  0.00     0.074 A 
ATOM      6  C14 UNK     1      39.153  21.760   0.620  1.00  0.00     0.071 A 
ENDROOT
BRANCH   1   7
ATOM      7  C4  UNK     1      39.671  18.494  -2.046  1.00  0.00     0.165 C 
ATOM      8  O1  UNK     1      39.683  18.677  -3.279  1.00  0.00    -0.292 OA
BRANCH   7   9
ATOM      9  C2  UNK     1      39.844  17.071  -1.489  1.00  0.00     0.088 C 
BRANCH   9  10
ATOM     10  C1  UNK     1      40.402  16.083  -2.516  1.00  0.00     0.046 C 
BRANCH  10  11
ATOM     11  C3  UNK     1      40.551  14.700  -1.935  1.00  0.00    -0.058 A 
ATOM     12  C6  UNK     1      39.468  14.103  -1.309  1.00  0.00     0.010 A 
ATOM     13  C12 UNK     1      39.606  12.823  -0.772  1.00  0.00     0.037 A 
ATOM     14  C15 UNK     1      40.828  12.155  -0.866  1.00  0.00     0.065 A 
ATOM     15  C13 UNK     1      41.911  12.768  -1.498  1.00  0.00     0.037 A 
ATOM     16  C7  UNK     1      41.772  14.047  -2.036  1.00  0.00     0.010 A 
BRANCH  14  17
ATOM     17  O5  UNK     1      40.963  10.907  -0.343  1.00  0.00    -0.361 OA
ATOM     18  H14 UNK     1      40.267  10.335  -0.709  1.00  0.00     0.217 HD
ENDBRANCH  14  17
ENDBRANCH  10  11
ENDBRANCH   9  10
ENDBRANCH   7   9
ENDBRANCH   1   7
BRANCH   2  19
ATOM     19  O2  UNK     1      40.789  21.037  -2.564  1.00  0.00    -0.360 OA
ATOM     20  H11 UNK     1      41.490  20.370  -2.635  1.00  0.00     0.217 HD
ENDBRANCH   2  19
BRANCH   3  21
ATOM     21  O3  UNK     1      38.188  18.247   0.348  1.00  0.00    -0.360 OA
ATOM     22  H12 UNK     1      38.323  17.633  -0.394  1.00  0.00     0.217 HD
ENDBRANCH   3  21
BRANCH   6  23
ATOM     23  O4  UNK     1      38.987  22.806   1.475  1.00  0.00    -0.361 OA
ATOM     24  H13 UNK     1      39.862  23.130   1.750  1.00  0.00     0.217 HD
ENDBRANCH   6  23
TORSDOF 8
ENDMDL
MODEL 17
REMARK VINA RESULT:      -7.0      3.449      6.936
REMARK  8 active torsions:
REMARK  status: ('A' for Active; 'I' for Inactive)
REMARK    1  A    between atoms: O2_2  and  C8_13 
REMARK    2  A    between atoms: O3_3  and  C9_14 
REMARK    3  A    between atoms: O4_4  and  C14_19 
REMARK    4  A    between atoms: O5_5  and  C15_20 
REMARK    5  A    between atoms: C1_6  and  C2_7 
REMARK    6  A    between atoms: C1_6  and  C3_8 
REMARK    7  A    between atoms: C2_7  and  C4_9 
REMARK    8  A    between atoms: C4_9  and  C5_10 
ROOT
ATOM      1  C5  UNK     1      40.151  14.932  -1.475  1.00  0.00     0.076 A 
ATOM      2  C8  UNK     1      39.629  16.084  -0.887  1.00  0.00     0.085 A 
ATOM      3  C9  UNK     1      39.292  13.928  -1.923  1.00  0.00     0.085 A 
ATOM      4  C10 UNK     1      38.250  16.232  -0.746  1.00  0.00     0.074 A 
ATOM      5  C11 UNK     1      37.913  14.076  -1.783  1.00  0.00     0.074 A 
ATOM      6  C14 UNK     1      37.391  15.228  -1.194  1.00  0.00     0.071 A 
ENDROOT
BRANCH   1   7
ATOM      7  C4  UNK     1      41.594  14.778  -1.622  1.00  0.00     0.165 C 
ATOM      8  O1  UNK     1      42.195  15.310  -2.575  1.00  0.00    -0.292 OA
BRANCH   7   9
ATOM      9  C2  UNK     1      42.383  13.949  -0.595  1.00  0.00     0.088 C 
BRANCH   9  10
ATOM     10  C1  UNK     1      42.136  12.444  -0.715  1.00  0.00     0.046 C 
BRANCH  10  11
ATOM     11  C3  UNK     1      41.293  11.925   0.421  1.00  0.00    -0.058 A 
ATOM     12  C6  UNK     1      40.903  10.594   0.428  1.00  0.00     0.010 A 
ATOM     13  C12 UNK     1      40.123  10.114   1.480  1.00  0.00     0.037 A 
ATOM     14  C15 UNK     1      39.740  10.971   2.512  1.00  0.00     0.065 A 
ATOM     15  C13 UNK     1      40.138  12.308   2.493  1.00  0.00     0.037 A 
ATOM     16  C7  UNK     1      40.919  12.787   1.441  1.00  0.00     0.010 A 
BRANCH  14  17
ATOM     17  O5  UNK     1      38.980  10.502   3.539  1.00  0.00    -0.361 OA
ATOM     18  H14 UNK     1      38.155  10.135   3.179  1.00  0.00     0.217 HD
ENDBRANCH  14  17
ENDBRANCH  10  11
ENDBRANCH   9  10
ENDBRANCH   7   9
ENDBRANCH   1   7
BRANCH   2  19
ATOM     19  O2  UNK     1      40.450  17.078  -0.442  1.00  0.00    -0.360 OA
ATOM     20  H11 UNK     1      39.933  17.854  -0.172  1.00  0.00     0.217 HD
ENDBRANCH   2  19
BRANCH   3  21
ATOM     21  O3  UNK     1      39.781  12.794  -2.501  1.00  0.00    -0.360 OA
ATOM     22  H12 UNK     1      39.044  12.294  -2.893  1.00  0.00     0.217 HD
ENDBRANCH   3  21
BRANCH   6  23
ATOM     23  O4  UNK     1      36.045  15.372  -1.056  1.00  0.00    -0.361 OA
ATOM     24  H13 UNK     1      35.674  15.690  -1.897  1.00  0.00     0.217 HD
ENDBRANCH   6  23
TORSDOF 8
ENDMDL
MODEL 18
REMARK VINA RESULT:      -7.0      3.213      6.443
REMARK  8 active torsions:
REMARK  status: ('A' for Active; 'I' for Inactive)
REMARK    1  A    between atoms: O2_2  and  C8_13 
REMARK    2  A    between atoms: O3_3  and  C9_14 
REMARK    3  A    between atoms: O4_4  and  C14_19 
REMARK    4  A    between atoms: O5_5  and  C15_20 
REMARK    5  A    between atoms: C1_6  and  C2_7 
REMARK    6  A    between atoms: C1_6  and  C3_8 
REMARK    7  A    between atoms: C2_7  and  C4_9 
REMARK    8  A    between atoms: C4_9  and  C5_10 
ROOT
ATOM      1  C5  UNK     1      39.716  15.679  -2.085  1.00  0.00     0.076 A 
ATOM      2  C8  UNK     1      38.898  14.609  -2.445  1.00  0.00     0.085 A 
ATOM      3  C9  UNK     1      39.320  16.548  -1.068  1.00  0.00     0.085 A 
ATOM      4  C10 UNK     1      37.684  14.407  -1.789  1.00  0.00     0.074 A 
ATOM      5  C11 UNK     1      38.107  16.347  -0.412  1.00  0.00     0.074 A 
ATOM      6  C14 UNK     1      37.288  15.276  -0.773  1.00  0.00     0.071 A 
ENDROOT
BRANCH   1   7
ATOM      7  C4  UNK     1      40.986  15.889  -2.771  1.00  0.00     0.165 C 
ATOM      8  O1  UNK     1      41.126  16.831  -3.575  1.00  0.00    -0.292 OA
BRANCH   7   9
ATOM      9  C2  UNK     1      42.166  14.938  -2.505  1.00  0.00     0.088 C 
BRANCH   9  10
ATOM     10  C1  UNK     1      42.420  14.693  -1.016  1.00  0.00     0.046 C 
BRANCH  10  11
ATOM     11  C3  UNK     1      41.753  13.428  -0.538  1.00  0.00    -0.058 A 
ATOM     12  C6  UNK     1      41.007  13.451   0.630  1.00  0.00     0.010 A 
ATOM     13  C12 UNK     1      40.390  12.280   1.073  1.00  0.00     0.037 A 
ATOM     14  C15 UNK     1      40.529  11.099   0.342  1.00  0.00     0.065 A 
ATOM     15  C13 UNK     1      41.283  11.091  -0.832  1.00  0.00     0.037 A 
ATOM     16  C7  UNK     1      41.899  12.261  -1.274  1.00  0.00     0.010 A 
BRANCH  14  17
ATOM     17  O5  UNK     1      39.926   9.958   0.772  1.00  0.00    -0.361 OA
ATOM     18  H14 UNK     1      39.472   9.539   0.022  1.00  0.00     0.217 HD
ENDBRANCH  14  17
ENDBRANCH  10  11
ENDBRANCH   9  10
ENDBRANCH   7   9
ENDBRANCH   1   7
BRANCH   2  19
ATOM     19  O2  UNK     1      39.266  13.747  -3.435  1.00  0.00    -0.360 OA
ATOM     20  H11 UNK     1      39.188  14.171  -4.305  1.00  0.00     0.217 HD
ENDBRANCH   2  19
BRANCH   3  21
ATOM     21  O3  UNK     1      40.105  17.600  -0.700  1.00  0.00    -0.360 OA
ATOM     22  H12 UNK     1      40.131  17.653   0.271  1.00  0.00     0.217 HD
ENDBRANCH   3  21
BRANCH   6  23
ATOM     23  O4  UNK     1      36.103  15.080  -0.133  1.00  0.00    -0.361 OA
ATOM     24  H13 UNK     1      35.481  14.650  -0.745  1.00  0.00     0.217 HD
ENDBRANCH   6  23
TORSDOF 8
ENDMDL
MODEL 19
REMARK VINA RESULT:      -6.9      1.381      2.338
REMARK  8 active torsions:
REMARK  status: ('A' for Active; 'I' for Inactive)
REMARK    1  A    between atoms: O2_2  and  C8_13 
REMARK    2  A    between atoms: O3_3  and  C9_14 
REMARK    3  A    between atoms: O4_4  and  C14_19 
REMARK    4  A    between atoms: O5_5  and  C15_20 
REMARK    5  A    between atoms: C1_6  and  C2_7 
REMARK    6  A    between atoms: C1_6  and  C3_8 
REMARK    7  A    between atoms: C2_7  and  C4_9 
REMARK    8  A    between atoms: C4_9  and  C5_10 
ROOT
ATOM      1  C5  UNK     1      39.720  14.761  -1.257  1.00  0.00     0.076 A 
ATOM      2  C8  UNK     1      40.918  14.980  -1.938  1.00  0.00     0.085 A 
ATOM      3  C9  UNK     1      39.375  13.472  -0.851  1.00  0.00     0.085 A 
ATOM      4  C10 UNK     1      41.770  13.911  -2.213  1.00  0.00     0.074 A 
ATOM      5  C11 UNK     1      40.227  12.402  -1.126  1.00  0.00     0.074 A 
ATOM      6  C14 UNK     1      41.425  12.622  -1.807  1.00  0.00     0.071 A 
ENDROOT
BRANCH   1   7
ATOM      7  C4  UNK     1      38.830  15.880  -0.970  1.00  0.00     0.165 C 
ATOM      8  O1  UNK     1      37.593  15.738  -1.026  1.00  0.00    -0.292 OA
BRANCH   7   9
ATOM      9  C2  UNK     1      39.421  17.250  -0.597  1.00  0.00     0.088 C 
BRANCH   9  10
ATOM     10  C1  UNK     1      38.357  18.286  -0.228  1.00  0.00     0.046 C 
BRANCH  10  11
ATOM     11  C3  UNK     1      38.912  19.687  -0.250  1.00  0.00    -0.058 A 
ATOM     12  C6  UNK     1      39.672  20.102  -1.333  1.00  0.00     0.010 A 
ATOM     13  C12 UNK     1      40.186  21.399  -1.354  1.00  0.00     0.037 A 
ATOM     14  C15 UNK     1      39.934  22.266  -0.289  1.00  0.00     0.065 A 
ATOM     15  C13 UNK     1      39.169  21.836   0.794  1.00  0.00     0.037 A 
ATOM     16  C7  UNK     1      38.655  20.539   0.814  1.00  0.00     0.010 A 
BRANCH  14  17
ATOM     17  O5  UNK     1      40.434  23.531  -0.310  1.00  0.00    -0.361 OA
ATOM     18  H14 UNK     1      40.892  23.703   0.529  1.00  0.00     0.217 HD
ENDBRANCH  14  17
ENDBRANCH  10  11
ENDBRANCH   9  10
ENDBRANCH   7   9
ENDBRANCH   1   7
BRANCH   2  19
ATOM     19  O2  UNK     1      41.275  16.232  -2.344  1.00  0.00    -0.360 OA
ATOM     20  H11 UNK     1      42.203  16.248  -2.627  1.00  0.00     0.217 HD
ENDBRANCH   2  19
BRANCH   3  21
ATOM     21  O3  UNK     1      38.210  13.236  -0.184  1.00  0.00    -0.360 OA
ATOM     22  H12 UNK     1      37.492  13.118  -0.830  1.00  0.00     0.217 HD
ENDBRANCH   3  21
BRANCH   6  23
ATOM     23  O4  UNK     1      42.255  11.578  -2.076  1.00  0.00    -0.361 OA
ATOM     24  H13 UNK     1      42.248  11.407  -3.033  1.00  0.00     0.217 HD
ENDBRANCH   6  23
TORSDOF 8
ENDMDL
MODEL 20
REMARK VINA RESULT:      -6.9      1.380      2.043
REMARK  8 active torsions:
REMARK  status: ('A' for Active; 'I' for Inactive)
REMARK    1  A    between atoms: O2_2  and  C8_13 
REMARK    2  A    between atoms: O3_3  and  C9_14 
REMARK    3  A    between atoms: O4_4  and  C14_19 
REMARK    4  A    between atoms: O5_5  and  C15_20 
REMARK    5  A    between atoms: C1_6  and  C2_7 
REMARK    6  A    between atoms: C1_6  and  C3_8 
REMARK    7  A    between atoms: C2_7  and  C4_9 
REMARK    8  A    between atoms: C4_9  and  C5_10 
ROOT
ATOM      1  C5  UNK     1      39.719  14.758  -1.257  1.00  0.00     0.076 A 
ATOM      2  C8  UNK     1      39.370  13.470  -0.851  1.00  0.00     0.085 A 
ATOM      3  C9  UNK     1      40.917  14.973  -1.939  1.00  0.00     0.085 A 
ATOM      4  C10 UNK     1      40.218  12.398  -1.126  1.00  0.00     0.074 A 
ATOM      5  C11 UNK     1      41.765  13.901  -2.214  1.00  0.00     0.074 A 
ATOM      6  C14 UNK     1      41.416  12.612  -1.807  1.00  0.00     0.071 A 
ENDROOT
BRANCH   1   7
ATOM      7  C4  UNK     1      38.831  15.878  -0.970  1.00  0.00     0.165 C 
ATOM      8  O1  UNK     1      37.594  15.738  -1.022  1.00  0.00    -0.292 OA
BRANCH   7   9
ATOM      9  C2  UNK     1      39.424  17.249  -0.601  1.00  0.00     0.088 C 
BRANCH   9  10
ATOM     10  C1  UNK     1      38.364  18.280  -0.209  1.00  0.00     0.046 C 
BRANCH  10  11
ATOM     11  C3  UNK     1      38.914  19.683  -0.237  1.00  0.00    -0.058 A 
ATOM     12  C6  UNK     1      38.663  20.535   0.827  1.00  0.00     0.010 A 
ATOM     13  C12 UNK     1      39.173  21.834   0.802  1.00  0.00     0.037 A 
ATOM     14  C15 UNK     1      39.927  22.265  -0.290  1.00  0.00     0.065 A 
ATOM     15  C13 UNK     1      40.172  21.398  -1.355  1.00  0.00     0.037 A 
ATOM     16  C7  UNK     1      39.662  20.100  -1.328  1.00  0.00     0.010 A 
BRANCH  14  17
ATOM     17  O5  UNK     1      40.425  23.531  -0.315  1.00  0.00    -0.361 OA
ATOM     18  H14 UNK     1      39.927  24.054  -0.966  1.00  0.00     0.217 HD
ENDBRANCH  14  17
ENDBRANCH  10  11
ENDBRANCH   9  10
ENDBRANCH   7   9
ENDBRANCH   1   7
BRANCH   2  19
ATOM     19  O2  UNK     1      38.204  13.237  -0.184  1.00  0.00    -0.360 OA
ATOM     20  H11 UNK     1      37.498  12.992  -0.803  1.00  0.00     0.217 HD
ENDBRANCH   2  19
BRANCH   3  21
ATOM     21  O3  UNK     1      41.277  16.223  -2.346  1.00  0.00    -0.360 OA
ATOM     22  H12 UNK     1      41.037  16.864  -1.655  1.00  0.00     0.217 HD
ENDBRANCH   3  21
BRANCH   6  23
ATOM     23  O4  UNK     1      42.244  11.567  -2.075  1.00  0.00    -0.361 OA
ATOM     24  H13 UNK     1      42.163  11.333  -3.016  1.00  0.00     0.217 HD
ENDBRANCH   6  23
TORSDOF 8
ENDMDL
