MODEL 1
REMARK VINA RESULT:      -8.9      0.000      0.000
REMARK  8 active torsions:
REMARK  status: ('A' for Active; 'I' for Inactive)
REMARK    1  A    between atoms: O2_2  and  C8_13 
REMARK    2  A    between atoms: O3_3  and  C9_14 
REMARK    3  A    between atoms: O4_4  and  C14_19 
REMARK    4  A    between atoms: O5_5  and  C15_20 
REMARK    5  A    between atoms: C1_6  and  C2_7 
REMARK    6  A    between atoms: C1_6  and  C3_8 
REMARK    7  A    between atoms: C2_7  and  C4_9 
REMARK    8  A    between atoms: C4_9  and  C5_10 
ROOT
ATOM      1  C5  UNK     1      40.038  14.835  -1.471  1.00  0.00     0.076 A 
ATOM      2  C8  UNK     1      41.231  14.282  -1.007  1.00  0.00     0.085 A 
ATOM      3  C9  UNK     1      38.841  14.134  -1.322  1.00  0.00     0.085 A 
ATOM      4  C10 UNK     1      41.229  13.029  -0.395  1.00  0.00     0.074 A 
ATOM      5  C11 UNK     1      38.838  12.881  -0.710  1.00  0.00     0.074 A 
ATOM      6  C14 UNK     1      40.032  12.328  -0.246  1.00  0.00     0.071 A 
ENDROOT
BRANCH   1   7
ATOM      7  C4  UNK     1      40.041  16.146  -2.110  1.00  0.00     0.165 C 
ATOM      8  O1  UNK     1      40.371  16.268  -3.306  1.00  0.00    -0.292 OA
BRANCH   7   9
ATOM      9  C2  UNK     1      39.638  17.391  -1.303  1.00  0.00     0.088 C 
BRANCH   9  10
ATOM     10  C1  UNK     1      39.649  18.678  -2.132  1.00  0.00     0.046 C 
BRANCH  10  11
ATOM     11  C3  UNK     1      39.590  19.904  -1.258  1.00  0.00    -0.058 A 
ATOM     12  C6  UNK     1      38.795  19.895  -0.123  1.00  0.00     0.010 A 
ATOM     13  C12 UNK     1      38.741  21.030   0.687  1.00  0.00     0.037 A 
ATOM     14  C15 UNK     1      39.484  22.163   0.350  1.00  0.00     0.065 A 
ATOM     15  C13 UNK     1      40.280  22.159  -0.795  1.00  0.00     0.037 A 
ATOM     16  C7  UNK     1      40.334  21.023  -1.604  1.00  0.00     0.010 A 
BRANCH  14  17
ATOM     17  O5  UNK     1      39.433  23.269   1.140  1.00  0.00    -0.361 OA
ATOM     18  H14 UNK     1      38.573  23.706   1.016  1.00  0.00     0.217 HD
ENDBRANCH  14  17
ENDBRANCH  10  11
ENDBRANCH   9  10
ENDBRANCH   7   9
ENDBRANCH   1   7
BRANCH   2  19
ATOM     19  O2  UNK     1      42.412  14.950  -1.142  1.00  0.00    -0.360 OA
ATOM     20  H11 UNK     1      43.094  14.369  -1.515  1.00  0.00     0.217 HD
ENDBRANCH   2  19
BRANCH   3  21
ATOM     21  O3  UNK     1      37.663  14.656  -1.768  1.00  0.00    -0.360 OA
ATOM     22  H12 UNK     1      37.044  13.929  -1.956  1.00  0.00     0.217 HD
ENDBRANCH   3  21
BRANCH   6  23
ATOM     23  O4  UNK     1      40.029  11.105   0.350  1.00  0.00    -0.361 OA
ATOM     24  H13 UNK     1      40.159  10.422  -0.331  1.00  0.00     0.217 HD
ENDBRANCH   6  23
TORSDOF 8
ENDMDL
MODEL 2
REMARK VINA RESULT:      -8.9      0.004      1.863
REMARK  8 active torsions:
REMARK  status: ('A' for Active; 'I' for Inactive)
REMARK    1  A    between atoms: O2_2  and  C8_13 
REMARK    2  A    between atoms: O3_3  and  C9_14 
REMARK    3  A    between atoms: O4_4  and  C14_19 
REMARK    4  A    between atoms: O5_5  and  C15_20 
REMARK    5  A    between atoms: C1_6  and  C2_7 
REMARK    6  A    between atoms: C1_6  and  C3_8 
REMARK    7  A    between atoms: C2_7  and  C4_9 
REMARK    8  A    between atoms: C4_9  and  C5_10 
ROOT
ATOM      1  C5  UNK     1      40.038  14.835  -1.469  1.00  0.00     0.076 A 
ATOM      2  C8  UNK     1      38.840  14.135  -1.320  1.00  0.00     0.085 A 
ATOM      3  C9  UNK     1      41.231  14.280  -1.007  1.00  0.00     0.085 A 
ATOM      4  C10 UNK     1      38.835  12.882  -0.709  1.00  0.00     0.074 A 
ATOM      5  C11 UNK     1      41.227  13.026  -0.396  1.00  0.00     0.074 A 
ATOM      6  C14 UNK     1      40.028  12.327  -0.247  1.00  0.00     0.071 A 
ENDROOT
BRANCH   1   7
ATOM      7  C4  UNK     1      40.041  16.146  -2.109  1.00  0.00     0.165 C 
ATOM      8  O1  UNK     1      40.369  16.267  -3.305  1.00  0.00    -0.292 OA
BRANCH   7   9
ATOM      9  C2  UNK     1      39.641  17.392  -1.301  1.00  0.00     0.088 C 
BRANCH   9  10
ATOM     10  C1  UNK     1      39.652  18.678  -2.130  1.00  0.00     0.046 C 
BRANCH  10  11
ATOM     11  C3  UNK     1      39.594  19.904  -1.255  1.00  0.00    -0.058 A 
ATOM     12  C6  UNK     1      38.797  19.895  -0.121  1.00  0.00     0.010 A 
ATOM     13  C12 UNK     1      38.744  21.030   0.689  1.00  0.00     0.037 A 
ATOM     14  C15 UNK     1      39.487  22.163   0.352  1.00  0.00     0.065 A 
ATOM     15  C13 UNK     1      40.284  22.159  -0.793  1.00  0.00     0.037 A 
ATOM     16  C7  UNK     1      40.338  21.023  -1.601  1.00  0.00     0.010 A 
BRANCH  14  17
ATOM     17  O5  UNK     1      39.436  23.269   1.142  1.00  0.00    -0.361 OA
ATOM     18  H14 UNK     1      40.333  23.476   1.454  1.00  0.00     0.217 HD
ENDBRANCH  14  17
ENDBRANCH  10  11
ENDBRANCH   9  10
ENDBRANCH   7   9
ENDBRANCH   1   7
BRANCH   2  19
ATOM     19  O2  UNK     1      37.662  14.659  -1.765  1.00  0.00    -0.360 OA
ATOM     20  H11 UNK     1      37.289  15.269  -1.109  1.00  0.00     0.217 HD
ENDBRANCH   2  19
BRANCH   3  21
ATOM     21  O3  UNK     1      42.413  14.946  -1.143  1.00  0.00    -0.360 OA
ATOM     22  H12 UNK     1      43.070  14.350  -1.542  1.00  0.00     0.217 HD
ENDBRANCH   3  21
BRANCH   6  23
ATOM     23  O4  UNK     1      40.024  11.104   0.350  1.00  0.00    -0.361 OA
ATOM     24  H13 UNK     1      39.791  11.212   1.288  1.00  0.00     0.217 HD
ENDBRANCH   6  23
TORSDOF 8
ENDMDL
MODEL 3
REMARK VINA RESULT:      -8.9      0.005      1.081
REMARK  8 active torsions:
REMARK  status: ('A' for Active; 'I' for Inactive)
REMARK    1  A    between atoms: O2_2  and  C8_13 
REMARK    2  A    between atoms: O3_3  and  C9_14 
REMARK    3  A    between atoms: O4_4  and  C14_19 
REMARK    4  A    between atoms: O5_5  and  C15_20 
REMARK    5  A    between atoms: C1_6  and  C2_7 
REMARK    6  A    between atoms: C1_6  and  C3_8 
REMARK    7  A    between atoms: C2_7  and  C4_9 
REMARK    8  A    between atoms: C4_9  and  C5_10 
ROOT
ATOM      1  C5  UNK     1      40.038  14.835  -1.472  1.00  0.00     0.076 A 
ATOM      2  C8  UNK     1      41.232  14.285  -1.007  1.00  0.00     0.085 A 
ATOM      3  C9  UNK     1      38.842  14.133  -1.323  1.00  0.00     0.085 A 
ATOM      4  C10 UNK     1      41.231  13.032  -0.394  1.00  0.00     0.074 A 
ATOM      5  C11 UNK     1      38.840  12.881  -0.709  1.00  0.00     0.074 A 
ATOM      6  C14 UNK     1      40.035  12.330  -0.244  1.00  0.00     0.071 A 
ENDROOT
BRANCH   1   7
ATOM      7  C4  UNK     1      40.041  16.145  -2.113  1.00  0.00     0.165 C 
ATOM      8  O1  UNK     1      40.371  16.267  -3.308  1.00  0.00    -0.292 OA
BRANCH   7   9
ATOM      9  C2  UNK     1      39.636  17.392  -1.307  1.00  0.00     0.088 C 
BRANCH   9  10
ATOM     10  C1  UNK     1      39.646  18.677  -2.137  1.00  0.00     0.046 C 
BRANCH  10  11
ATOM     11  C3  UNK     1      39.588  19.904  -1.264  1.00  0.00    -0.058 A 
ATOM     12  C6  UNK     1      40.331  21.022  -1.610  1.00  0.00     0.010 A 
ATOM     13  C12 UNK     1      40.278  22.159  -0.802  1.00  0.00     0.037 A 
ATOM     14  C15 UNK     1      39.481  22.162   0.344  1.00  0.00     0.065 A 
ATOM     15  C13 UNK     1      38.738  21.030   0.681  1.00  0.00     0.037 A 
ATOM     16  C7  UNK     1      38.792  19.895  -0.128  1.00  0.00     0.010 A 
BRANCH  14  17
ATOM     17  O5  UNK     1      39.428  23.270   1.131  1.00  0.00    -0.361 OA
ATOM     18  H14 UNK     1      40.303  23.418   1.528  1.00  0.00     0.217 HD
ENDBRANCH  14  17
ENDBRANCH  10  11
ENDBRANCH   9  10
ENDBRANCH   7   9
ENDBRANCH   1   7
BRANCH   2  19
ATOM     19  O2  UNK     1      42.412  14.954  -1.142  1.00  0.00    -0.360 OA
ATOM     20  H11 UNK     1      42.521  15.278  -2.050  1.00  0.00     0.217 HD
ENDBRANCH   2  19
BRANCH   3  21
ATOM     21  O3  UNK     1      37.664  14.654  -1.769  1.00  0.00    -0.360 OA
ATOM     22  H12 UNK     1      36.926  14.160  -1.370  1.00  0.00     0.217 HD
ENDBRANCH   3  21
BRANCH   6  23
ATOM     23  O4  UNK     1      40.033  11.107   0.353  1.00  0.00    -0.361 OA
ATOM     24  H13 UNK     1      39.114  10.850   0.540  1.00  0.00     0.217 HD
ENDBRANCH   6  23
TORSDOF 8
ENDMDL
MODEL 4
REMARK VINA RESULT:      -8.9      0.005      2.154
REMARK  8 active torsions:
REMARK  status: ('A' for Active; 'I' for Inactive)
REMARK    1  A    between atoms: O2_2  and  C8_13 
REMARK    2  A    between atoms: O3_3  and  C9_14 
REMARK    3  A    between atoms: O4_4  and  C14_19 
REMARK    4  A    between atoms: O5_5  and  C15_20 
REMARK    5  A    between atoms: C1_6  and  C2_7 
REMARK    6  A    between atoms: C1_6  and  C3_8 
REMARK    7  A    between atoms: C2_7  and  C4_9 
REMARK    8  A    between atoms: C4_9  and  C5_10 
ROOT
ATOM      1  C5  UNK     1      40.039  14.835  -1.470  1.00  0.00     0.076 A 
ATOM      2  C8  UNK     1      38.842  14.134  -1.322  1.00  0.00     0.085 A 
ATOM      3  C9  UNK     1      41.232  14.283  -1.006  1.00  0.00     0.085 A 
ATOM      4  C10 UNK     1      38.840  12.881  -0.709  1.00  0.00     0.074 A 
ATOM      5  C11 UNK     1      41.231  13.031  -0.394  1.00  0.00     0.074 A 
ATOM      6  C14 UNK     1      40.033  12.329  -0.245  1.00  0.00     0.071 A 
ENDROOT
BRANCH   1   7
ATOM      7  C4  UNK     1      40.040  16.145  -2.112  1.00  0.00     0.165 C 
ATOM      8  O1  UNK     1      40.369  16.266  -3.308  1.00  0.00    -0.292 OA
BRANCH   7   9
ATOM      9  C2  UNK     1      39.636  17.392  -1.307  1.00  0.00     0.088 C 
BRANCH   9  10
ATOM     10  C1  UNK     1      39.645  18.677  -2.137  1.00  0.00     0.046 C 
BRANCH  10  11
ATOM     11  C3  UNK     1      39.588  19.904  -1.265  1.00  0.00    -0.058 A 
ATOM     12  C6  UNK     1      40.331  21.022  -1.611  1.00  0.00     0.010 A 
ATOM     13  C12 UNK     1      40.277  22.159  -0.803  1.00  0.00     0.037 A 
ATOM     14  C15 UNK     1      39.481  22.163   0.343  1.00  0.00     0.065 A 
ATOM     15  C13 UNK     1      38.739  21.031   0.681  1.00  0.00     0.037 A 
ATOM     16  C7  UNK     1      38.792  19.895  -0.128  1.00  0.00     0.010 A 
BRANCH  14  17
ATOM     17  O5  UNK     1      39.428  23.271   1.130  1.00  0.00    -0.361 OA
ATOM     18  H14 UNK     1      38.565  23.702   1.010  1.00  0.00     0.217 HD
ENDBRANCH  14  17
ENDBRANCH  10  11
ENDBRANCH   9  10
ENDBRANCH   7   9
ENDBRANCH   1   7
BRANCH   2  19
ATOM     19  O2  UNK     1      37.664  14.654  -1.769  1.00  0.00    -0.360 OA
ATOM     20  H11 UNK     1      37.355  14.177  -2.555  1.00  0.00     0.217 HD
ENDBRANCH   2  19
BRANCH   3  21
ATOM     21  O3  UNK     1      42.413  14.952  -1.142  1.00  0.00    -0.360 OA
ATOM     22  H12 UNK     1      43.070  14.359  -1.547  1.00  0.00     0.217 HD
ENDBRANCH   3  21
BRANCH   6  23
ATOM     23  O4  UNK     1      40.031  11.107   0.354  1.00  0.00    -0.361 OA
ATOM     24  H13 UNK     1      39.787  10.434  -0.305  1.00  0.00     0.217 HD
ENDBRANCH   6  23
TORSDOF 8
ENDMDL
MODEL 5
REMARK VINA RESULT:      -8.4      0.949      2.404
REMARK  8 active torsions:
REMARK  status: ('A' for Active; 'I' for Inactive)
REMARK    1  A    between atoms: O2_2  and  C8_13 
REMARK    2  A    between atoms: O3_3  and  C9_14 
REMARK    3  A    between atoms: O4_4  and  C14_19 
REMARK    4  A    between atoms: O5_5  and  C15_20 
REMARK    5  A    between atoms: C1_6  and  C2_7 
REMARK    6  A    between atoms: C1_6  and  C3_8 
REMARK    7  A    between atoms: C2_7  and  C4_9 
REMARK    8  A    between atoms: C4_9  and  C5_10 
ROOT
ATOM      1  C5  UNK     1      40.178  14.270  -1.552  1.00  0.00     0.076 A 
ATOM      2  C8  UNK     1      39.213  13.374  -1.092  1.00  0.00     0.085 A 
ATOM      3  C9  UNK     1      41.490  14.181  -1.086  1.00  0.00     0.085 A 
ATOM      4  C10 UNK     1      39.560  12.390  -0.166  1.00  0.00     0.074 A 
ATOM      5  C11 UNK     1      41.837  13.198  -0.161  1.00  0.00     0.074 A 
ATOM      6  C14 UNK     1      40.871  12.301   0.300  1.00  0.00     0.071 A 
ENDROOT
BRANCH   1   7
ATOM      7  C4  UNK     1      39.814  15.298  -2.520  1.00  0.00     0.165 C 
ATOM      8  O1  UNK     1      39.411  14.985  -3.657  1.00  0.00    -0.292 OA
BRANCH   7   9
ATOM      9  C2  UNK     1      39.931  16.783  -2.139  1.00  0.00     0.088 C 
BRANCH   9  10
ATOM     10  C1  UNK     1      39.179  17.138  -0.855  1.00  0.00     0.046 C 
BRANCH  10  11
ATOM     11  C3  UNK     1      39.155  18.626  -0.617  1.00  0.00    -0.058 A 
ATOM     12  C6  UNK     1      39.816  19.468  -1.497  1.00  0.00     0.010 A 
ATOM     13  C12 UNK     1      39.794  20.846  -1.277  1.00  0.00     0.037 A 
ATOM     14  C15 UNK     1      39.110  21.365  -0.176  1.00  0.00     0.065 A 
ATOM     15  C13 UNK     1      38.449  20.506   0.702  1.00  0.00     0.037 A 
ATOM     16  C7  UNK     1      38.471  19.130   0.481  1.00  0.00     0.010 A 
BRANCH  14  17
ATOM     17  O5  UNK     1      39.087  22.708   0.038  1.00  0.00    -0.361 OA
ATOM     18  H14 UNK     1      39.943  22.984   0.407  1.00  0.00     0.217 HD
ENDBRANCH  14  17
ENDBRANCH  10  11
ENDBRANCH   9  10
ENDBRANCH   7   9
ENDBRANCH   1   7
BRANCH   2  19
ATOM     19  O2  UNK     1      37.925  13.442  -1.533  1.00  0.00    -0.360 OA
ATOM     20  H11 UNK     1      37.852  13.084  -2.433  1.00  0.00     0.217 HD
ENDBRANCH   2  19
BRANCH   3  21
ATOM     21  O3  UNK     1      42.448  15.046  -1.524  1.00  0.00    -0.360 OA
ATOM     22  H12 UNK     1      42.048  15.923  -1.659  1.00  0.00     0.217 HD
ENDBRANCH   3  21
BRANCH   6  23
ATOM     23  O4  UNK     1      41.210  11.342   1.204  1.00  0.00    -0.361 OA
ATOM     24  H13 UNK     1      41.512  10.551   0.725  1.00  0.00     0.217 HD
ENDBRANCH   6  23
TORSDOF 8
ENDMDL
MODEL 6
REMARK VINA RESULT:      -8.4      0.949      1.569
REMARK  8 active torsions:
REMARK  status: ('A' for Active; 'I' for Inactive)
REMARK    1  A    between atoms: O2_2  and  C8_13 
REMARK    2  A    between atoms: O3_3  and  C9_14 
REMARK    3  A    between atoms: O4_4  and  C14_19 
REMARK    4  A    between atoms: O5_5  and  C15_20 
REMARK    5  A    between atoms: C1_6  and  C2_7 
REMARK    6  A    between atoms: C1_6  and  C3_8 
REMARK    7  A    between atoms: C2_7  and  C4_9 
REMARK    8  A    between atoms: C4_9  and  C5_10 
ROOT
ATOM      1  C5  UNK     1      40.176  14.279  -1.559  1.00  0.00     0.076 A 
ATOM      2  C8  UNK     1      41.496  14.188  -1.116  1.00  0.00     0.085 A 
ATOM      3  C9  UNK     1      39.218  13.384  -1.083  1.00  0.00     0.085 A 
ATOM      4  C10 UNK     1      41.857  13.202  -0.198  1.00  0.00     0.074 A 
ATOM      5  C11 UNK     1      39.578  12.399  -0.165  1.00  0.00     0.074 A 
ATOM      6  C14 UNK     1      40.898  12.307   0.278  1.00  0.00     0.071 A 
ENDROOT
BRANCH   1   7
ATOM      7  C4  UNK     1      39.800  15.311  -2.518  1.00  0.00     0.165 C 
ATOM      8  O1  UNK     1      39.370  15.003  -3.647  1.00  0.00    -0.292 OA
BRANCH   7   9
ATOM      9  C2  UNK     1      39.935  16.795  -2.138  1.00  0.00     0.088 C 
BRANCH   9  10
ATOM     10  C1  UNK     1      39.200  17.157  -0.845  1.00  0.00     0.046 C 
BRANCH  10  11
ATOM     11  C3  UNK     1      39.169  18.647  -0.621  1.00  0.00    -0.058 A 
ATOM     12  C6  UNK     1      39.842  19.483  -1.498  1.00  0.00     0.010 A 
ATOM     13  C12 UNK     1      39.813  20.863  -1.291  1.00  0.00     0.037 A 
ATOM     14  C15 UNK     1      39.111  21.390  -0.205  1.00  0.00     0.065 A 
ATOM     15  C13 UNK     1      38.438  20.537   0.671  1.00  0.00     0.037 A 
ATOM     16  C7  UNK     1      38.467  19.158   0.462  1.00  0.00     0.010 A 
BRANCH  14  17
ATOM     17  O5  UNK     1      39.081  22.734  -0.004  1.00  0.00    -0.361 OA
ATOM     18  H14 UNK     1      38.929  23.178  -0.855  1.00  0.00     0.217 HD
ENDBRANCH  14  17
ENDBRANCH  10  11
ENDBRANCH   9  10
ENDBRANCH   7   9
ENDBRANCH   1   7
BRANCH   2  19
ATOM     19  O2  UNK     1      42.448  15.052  -1.567  1.00  0.00    -0.360 OA
ATOM     20  H11 UNK     1      42.752  14.795  -2.452  1.00  0.00     0.217 HD
ENDBRANCH   2  19
BRANCH   3  21
ATOM     21  O3  UNK     1      37.922  13.457  -1.503  1.00  0.00    -0.360 OA
ATOM     22  H12 UNK     1      37.886  13.955  -2.338  1.00  0.00     0.217 HD
ENDBRANCH   3  21
BRANCH   6  23
ATOM     23  O4  UNK     1      41.250  11.344   1.173  1.00  0.00    -0.361 OA
ATOM     24  H13 UNK     1      41.124  11.690   2.073  1.00  0.00     0.217 HD
ENDBRANCH   6  23
TORSDOF 8
ENDMDL
MODEL 7
REMARK VINA RESULT:      -8.2      1.669      2.972
REMARK  8 active torsions:
REMARK  status: ('A' for Active; 'I' for Inactive)
REMARK    1  A    between atoms: O2_2  and  C8_13 
REMARK    2  A    between atoms: O3_3  and  C9_14 
REMARK    3  A    between atoms: O4_4  and  C14_19 
REMARK    4  A    between atoms: O5_5  and  C15_20 
REMARK    5  A    between atoms: C1_6  and  C2_7 
REMARK    6  A    between atoms: C1_6  and  C3_8 
REMARK    7  A    between atoms: C2_7  and  C4_9 
REMARK    8  A    between atoms: C4_9  and  C5_10 
ROOT
ATOM      1  C5  UNK     1      40.200  13.212  -1.477  1.00  0.00     0.076 A 
ATOM      2  C8  UNK     1      39.141  12.900  -0.624  1.00  0.00     0.085 A 
ATOM      3  C9  UNK     1      41.372  12.456  -1.437  1.00  0.00     0.085 A 
ATOM      4  C10 UNK     1      39.253  11.835   0.268  1.00  0.00     0.074 A 
ATOM      5  C11 UNK     1      41.485  11.390  -0.545  1.00  0.00     0.074 A 
ATOM      6  C14 UNK     1      40.425  11.079   0.308  1.00  0.00     0.071 A 
ENDROOT
BRANCH   1   7
ATOM      7  C4  UNK     1      40.081  14.327  -2.409  1.00  0.00     0.165 C 
ATOM      8  O1  UNK     1      39.250  14.292  -3.338  1.00  0.00    -0.292 OA
BRANCH   7   9
ATOM      9  C2  UNK     1      40.990  15.557  -2.250  1.00  0.00     0.088 C 
BRANCH   9  10
ATOM     10  C1  UNK     1      40.406  16.825  -2.878  1.00  0.00     0.046 C 
BRANCH  10  11
ATOM     11  C3  UNK     1      39.803  17.734  -1.839  1.00  0.00    -0.058 A 
ATOM     12  C6  UNK     1      39.852  19.107  -2.023  1.00  0.00     0.010 A 
ATOM     13  C12 UNK     1      39.293  19.949  -1.061  1.00  0.00     0.037 A 
ATOM     14  C15 UNK     1      38.693  19.407   0.076  1.00  0.00     0.065 A 
ATOM     15  C13 UNK     1      38.650  18.024   0.250  1.00  0.00     0.037 A 
ATOM     16  C7  UNK     1      39.208  17.183  -0.713  1.00  0.00     0.010 A 
BRANCH  14  17
ATOM     17  O5  UNK     1      38.147  20.228   1.013  1.00  0.00    -0.361 OA
ATOM     18  H14 UNK     1      37.961  21.091   0.607  1.00  0.00     0.217 HD
ENDBRANCH  14  17
ENDBRANCH  10  11
ENDBRANCH   9  10
ENDBRANCH   7   9
ENDBRANCH   1   7
BRANCH   2  19
ATOM     19  O2  UNK     1      37.986  13.625  -0.647  1.00  0.00    -0.360 OA
ATOM     20  H11 UNK     1      38.178  14.572  -0.746  1.00  0.00     0.217 HD
ENDBRANCH   2  19
BRANCH   3  21
ATOM     21  O3  UNK     1      42.419  12.743  -2.262  1.00  0.00    -0.360 OA
ATOM     22  H12 UNK     1      42.075  13.102  -3.098  1.00  0.00     0.217 HD
ENDBRANCH   3  21
BRANCH   6  23
ATOM     23  O4  UNK     1      40.536  10.039   1.178  1.00  0.00    -0.361 OA
ATOM     24  H13 UNK     1      39.977  10.217   1.954  1.00  0.00     0.217 HD
ENDBRANCH   6  23
TORSDOF 8
ENDMDL
MODEL 8
REMARK VINA RESULT:      -8.1      1.669      2.417
REMARK  8 active torsions:
REMARK  status: ('A' for Active; 'I' for Inactive)
REMARK    1  A    between atoms: O2_2  and  C8_13 
REMARK    2  A    between atoms: O3_3  and  C9_14 
REMARK    3  A    between atoms: O4_4  and  C14_19 
REMARK    4  A    between atoms: O5_5  and  C15_20 
REMARK    5  A    between atoms: C1_6  and  C2_7 
REMARK    6  A    between atoms: C1_6  and  C3_8 
REMARK    7  A    between atoms: C2_7  and  C4_9 
REMARK    8  A    between atoms: C4_9  and  C5_10 
ROOT
ATOM      1  C5  UNK     1      40.193  13.217  -1.484  1.00  0.00     0.076 A 
ATOM      2  C8  UNK     1      41.364  12.461  -1.445  1.00  0.00     0.085 A 
ATOM      3  C9  UNK     1      39.133  12.906  -0.632  1.00  0.00     0.085 A 
ATOM      4  C10 UNK     1      41.476  11.394  -0.554  1.00  0.00     0.074 A 
ATOM      5  C11 UNK     1      39.244  11.839   0.259  1.00  0.00     0.074 A 
ATOM      6  C14 UNK     1      40.417  11.082   0.298  1.00  0.00     0.071 A 
ENDROOT
BRANCH   1   7
ATOM      7  C4  UNK     1      40.077  14.333  -2.416  1.00  0.00     0.165 C 
ATOM      8  O1  UNK     1      39.248  14.300  -3.347  1.00  0.00    -0.292 OA
BRANCH   7   9
ATOM      9  C2  UNK     1      40.987  15.562  -2.254  1.00  0.00     0.088 C 
BRANCH   9  10
ATOM     10  C1  UNK     1      40.405  16.832  -2.879  1.00  0.00     0.046 C 
BRANCH  10  11
ATOM     11  C3  UNK     1      39.797  17.737  -1.839  1.00  0.00    -0.058 A 
ATOM     12  C6  UNK     1      39.848  19.111  -2.017  1.00  0.00     0.010 A 
ATOM     13  C12 UNK     1      39.285  19.949  -1.054  1.00  0.00     0.037 A 
ATOM     14  C15 UNK     1      38.678  19.403   0.077  1.00  0.00     0.065 A 
ATOM     15  C13 UNK     1      38.633  18.018   0.244  1.00  0.00     0.037 A 
ATOM     16  C7  UNK     1      39.196  17.181  -0.719  1.00  0.00     0.010 A 
BRANCH  14  17
ATOM     17  O5  UNK     1      38.128  20.220   1.015  1.00  0.00    -0.361 OA
ATOM     18  H14 UNK     1      37.881  21.061   0.595  1.00  0.00     0.217 HD
ENDBRANCH  14  17
ENDBRANCH  10  11
ENDBRANCH   9  10
ENDBRANCH   7   9
ENDBRANCH   1   7
BRANCH   2  19
ATOM     19  O2  UNK     1      42.412  12.748  -2.269  1.00  0.00    -0.360 OA
ATOM     20  H11 UNK     1      42.519  13.707  -2.365  1.00  0.00     0.217 HD
ENDBRANCH   2  19
BRANCH   3  21
ATOM     21  O3  UNK     1      37.980  13.633  -0.654  1.00  0.00    -0.360 OA
ATOM     22  H12 UNK     1      38.187  14.564  -0.467  1.00  0.00     0.217 HD
ENDBRANCH   3  21
BRANCH   6  23
ATOM     23  O4  UNK     1      40.525  10.041   1.167  1.00  0.00    -0.361 OA
ATOM     24  H13 UNK     1      41.151  10.282   1.871  1.00  0.00     0.217 HD
ENDBRANCH   6  23
TORSDOF 8
ENDMDL
MODEL 9
REMARK VINA RESULT:      -8.1      2.113      7.156
REMARK  8 active torsions:
REMARK  status: ('A' for Active; 'I' for Inactive)
REMARK    1  A    between atoms: O2_2  and  C8_13 
REMARK    2  A    between atoms: O3_3  and  C9_14 
REMARK    3  A    between atoms: O4_4  and  C14_19 
REMARK    4  A    between atoms: O5_5  and  C15_20 
REMARK    5  A    between atoms: C1_6  and  C2_7 
REMARK    6  A    between atoms: C1_6  and  C3_8 
REMARK    7  A    between atoms: C2_7  and  C4_9 
REMARK    8  A    between atoms: C4_9  and  C5_10 
ROOT
ATOM      1  C5  UNK     1      39.778  16.689  -2.112  1.00  0.00     0.076 A 
ATOM      2  C8  UNK     1      39.060  16.764  -0.918  1.00  0.00     0.085 A 
ATOM      3  C9  UNK     1      40.166  17.857  -2.767  1.00  0.00     0.085 A 
ATOM      4  C10 UNK     1      38.730  18.008  -0.381  1.00  0.00     0.074 A 
ATOM      5  C11 UNK     1      39.836  19.101  -2.230  1.00  0.00     0.074 A 
ATOM      6  C14 UNK     1      39.118  19.177  -1.036  1.00  0.00     0.071 A 
ENDROOT
BRANCH   1   7
ATOM      7  C4  UNK     1      40.123  15.388  -2.674  1.00  0.00     0.165 C 
ATOM      8  O1  UNK     1      39.263  14.699  -3.256  1.00  0.00    -0.292 OA
BRANCH   7   9
ATOM      9  C2  UNK     1      41.561  14.856  -2.544  1.00  0.00     0.088 C 
BRANCH   9  10
ATOM     10  C1  UNK     1      42.016  14.692  -1.093  1.00  0.00     0.046 C 
BRANCH  10  11
ATOM     11  C3  UNK     1      41.553  13.382  -0.509  1.00  0.00    -0.058 A 
ATOM     12  C6  UNK     1      41.643  12.226  -1.269  1.00  0.00     0.010 A 
ATOM     13  C12 UNK     1      41.215  11.014  -0.728  1.00  0.00     0.037 A 
ATOM     14  C15 UNK     1      40.698  10.972   0.568  1.00  0.00     0.065 A 
ATOM     15  C13 UNK     1      40.612  12.143   1.323  1.00  0.00     0.037 A 
ATOM     16  C7  UNK     1      41.042  13.354   0.781  1.00  0.00     0.010 A 
BRANCH  14  17
ATOM     17  O5  UNK     1      40.282   9.790   1.096  1.00  0.00    -0.361 OA
ATOM     18  H14 UNK     1      39.690   9.352   0.462  1.00  0.00     0.217 HD
ENDBRANCH  14  17
ENDBRANCH  10  11
ENDBRANCH   9  10
ENDBRANCH   7   9
ENDBRANCH   1   7
BRANCH   2  19
ATOM     19  O2  UNK     1      38.672  15.635  -0.261  1.00  0.00    -0.360 OA
ATOM     20  H11 UNK     1      38.953  15.665   0.667  1.00  0.00     0.217 HD
ENDBRANCH   2  19
BRANCH   3  21
ATOM     21  O3  UNK     1      40.868  17.806  -3.935  1.00  0.00    -0.360 OA
ATOM     22  H12 UNK     1      41.058  16.876  -4.151  1.00  0.00     0.217 HD
ENDBRANCH   3  21
BRANCH   6  23
ATOM     23  O4  UNK     1      38.796  20.390  -0.512  1.00  0.00    -0.361 OA
ATOM     24  H13 UNK     1      38.143  20.264   0.198  1.00  0.00     0.217 HD
ENDBRANCH   6  23
TORSDOF 8
ENDMDL
MODEL 10
REMARK VINA RESULT:      -8.0      2.115      7.015
REMARK  8 active torsions:
REMARK  status: ('A' for Active; 'I' for Inactive)
REMARK    1  A    between atoms: O2_2  and  C8_13 
REMARK    2  A    between atoms: O3_3  and  C9_14 
REMARK    3  A    between atoms: O4_4  and  C14_19 
REMARK    4  A    between atoms: O5_5  and  C15_20 
REMARK    5  A    between atoms: C1_6  and  C2_7 
REMARK    6  A    between atoms: C1_6  and  C3_8 
REMARK    7  A    between atoms: C2_7  and  C4_9 
REMARK    8  A    between atoms: C4_9  and  C5_10 
ROOT
ATOM      1  C5  UNK     1      39.762  16.697  -2.095  1.00  0.00     0.076 A 
ATOM      2  C8  UNK     1      40.150  17.878  -2.728  1.00  0.00     0.085 A 
ATOM      3  C9  UNK     1      39.019  16.750  -0.916  1.00  0.00     0.085 A 
ATOM      4  C10 UNK     1      39.796  19.111  -2.181  1.00  0.00     0.074 A 
ATOM      5  C11 UNK     1      38.665  17.983  -0.369  1.00  0.00     0.074 A 
ATOM      6  C14 UNK     1      39.054  19.164  -1.002  1.00  0.00     0.071 A 
ENDROOT
BRANCH   1   7
ATOM      7  C4  UNK     1      40.132  15.408  -2.668  1.00  0.00     0.165 C 
ATOM      8  O1  UNK     1      39.283  14.704  -3.250  1.00  0.00    -0.292 OA
BRANCH   7   9
ATOM      9  C2  UNK     1      41.582  14.908  -2.553  1.00  0.00     0.088 C 
BRANCH   9  10
ATOM     10  C1  UNK     1      42.047  14.732  -1.106  1.00  0.00     0.046 C 
BRANCH  10  11
ATOM     11  C3  UNK     1      41.598  13.413  -0.532  1.00  0.00    -0.058 A 
ATOM     12  C6  UNK     1      41.073  13.370   0.750  1.00  0.00     0.010 A 
ATOM     13  C12 UNK     1      40.657  12.149   1.281  1.00  0.00     0.037 A 
ATOM     14  C15 UNK     1      40.773  10.983   0.523  1.00  0.00     0.065 A 
ATOM     15  C13 UNK     1      41.304  11.040  -0.766  1.00  0.00     0.037 A 
ATOM     16  C7  UNK     1      41.719  12.261  -1.297  1.00  0.00     0.010 A 
BRANCH  14  17
ATOM     17  O5  UNK     1      40.366   9.792   1.039  1.00  0.00    -0.361 OA
ATOM     18  H14 UNK     1      40.848   9.074   0.595  1.00  0.00     0.217 HD
ENDBRANCH  14  17
ENDBRANCH  10  11
ENDBRANCH   9  10
ENDBRANCH   7   9
ENDBRANCH   1   7
BRANCH   2  19
ATOM     19  O2  UNK     1      40.876  17.850  -3.882  1.00  0.00    -0.360 OA
ATOM     20  H11 UNK     1      40.575  17.129  -4.458  1.00  0.00     0.217 HD
ENDBRANCH   2  19
BRANCH   3  21
ATOM     21  O3  UNK     1      38.629  15.608  -0.282  1.00  0.00    -0.360 OA
ATOM     22  H12 UNK     1      39.007  15.596   0.614  1.00  0.00     0.217 HD
ENDBRANCH   3  21
BRANCH   6  23
ATOM     23  O4  UNK     1      38.709  20.367  -0.467  1.00  0.00    -0.361 OA
ATOM     24  H13 UNK     1      37.754  20.367  -0.282  1.00  0.00     0.217 HD
ENDBRANCH   6  23
TORSDOF 8
ENDMDL
MODEL 11
REMARK VINA RESULT:      -8.0      2.117      7.038
REMARK  8 active torsions:
REMARK  status: ('A' for Active; 'I' for Inactive)
REMARK    1  A    between atoms: O2_2  and  C8_13 
REMARK    2  A    between atoms: O3_3  and  C9_14 
REMARK    3  A    between atoms: O4_4  and  C14_19 
REMARK    4  A    between atoms: O5_5  and  C15_20 
REMARK    5  A    between atoms: C1_6  and  C2_7 
REMARK    6  A    between atoms: C1_6  and  C3_8 
REMARK    7  A    between atoms: C2_7  and  C4_9 
REMARK    8  A    between atoms: C4_9  and  C5_10 
ROOT
ATOM      1  C5  UNK     1      39.727  16.702  -2.079  1.00  0.00     0.076 A 
ATOM      2  C8  UNK     1      40.122  17.902  -2.670  1.00  0.00     0.085 A 
ATOM      3  C9  UNK     1      38.965  16.718  -0.911  1.00  0.00     0.085 A 
ATOM      4  C10 UNK     1      39.756  19.118  -2.093  1.00  0.00     0.074 A 
ATOM      5  C11 UNK     1      38.598  17.933  -0.334  1.00  0.00     0.074 A 
ATOM      6  C14 UNK     1      38.993  19.134  -0.925  1.00  0.00     0.071 A 
ENDROOT
BRANCH   1   7
ATOM      7  C4  UNK     1      40.110  15.431  -2.683  1.00  0.00     0.165 C 
ATOM      8  O1  UNK     1      39.275  14.746  -3.305  1.00  0.00    -0.292 OA
BRANCH   7   9
ATOM      9  C2  UNK     1      41.558  14.928  -2.551  1.00  0.00     0.088 C 
BRANCH   9  10
ATOM     10  C1  UNK     1      42.006  14.750  -1.099  1.00  0.00     0.046 C 
BRANCH  10  11
ATOM     11  C3  UNK     1      41.558  13.426  -0.536  1.00  0.00    -0.058 A 
ATOM     12  C6  UNK     1      41.674  12.282  -1.310  1.00  0.00     0.010 A 
ATOM     13  C12 UNK     1      41.260  11.056  -0.788  1.00  0.00     0.037 A 
ATOM     14  C15 UNK     1      40.733  10.989   0.503  1.00  0.00     0.065 A 
ATOM     15  C13 UNK     1      40.621  12.149   1.271  1.00  0.00     0.037 A 
ATOM     16  C7  UNK     1      41.036  13.374   0.749  1.00  0.00     0.010 A 
BRANCH  14  17
ATOM     17  O5  UNK     1      40.331   9.794   1.012  1.00  0.00    -0.361 OA
ATOM     18  H14 UNK     1      40.664   9.710   1.921  1.00  0.00     0.217 HD
ENDBRANCH  14  17
ENDBRANCH  10  11
ENDBRANCH   9  10
ENDBRANCH   7   9
ENDBRANCH   1   7
BRANCH   2  19
ATOM     19  O2  UNK     1      40.867  17.909  -3.812  1.00  0.00    -0.360 OA
ATOM     20  H11 UNK     1      41.532  18.616  -3.783  1.00  0.00     0.217 HD
ENDBRANCH   2  19
BRANCH   3  21
ATOM     21  O3  UNK     1      38.567  15.557  -0.317  1.00  0.00    -0.360 OA
ATOM     22  H12 UNK     1      38.834  14.807  -0.876  1.00  0.00     0.217 HD
ENDBRANCH   3  21
BRANCH   6  23
ATOM     23  O4  UNK     1      38.636  20.320  -0.362  1.00  0.00    -0.361 OA
ATOM     24  H13 UNK     1      38.517  20.980  -1.066  1.00  0.00     0.217 HD
ENDBRANCH   6  23
TORSDOF 8
ENDMDL
MODEL 12
REMARK VINA RESULT:      -8.0      2.119      7.096
REMARK  8 active torsions:
REMARK  status: ('A' for Active; 'I' for Inactive)
REMARK    1  A    between atoms: O2_2  and  C8_13 
REMARK    2  A    between atoms: O3_3  and  C9_14 
REMARK    3  A    between atoms: O4_4  and  C14_19 
REMARK    4  A    between atoms: O5_5  and  C15_20 
REMARK    5  A    between atoms: C1_6  and  C2_7 
REMARK    6  A    between atoms: C1_6  and  C3_8 
REMARK    7  A    between atoms: C2_7  and  C4_9 
REMARK    8  A    between atoms: C4_9  and  C5_10 
ROOT
ATOM      1  C5  UNK     1      39.717  16.701  -2.071  1.00  0.00     0.076 A 
ATOM      2  C8  UNK     1      38.953  16.709  -0.905  1.00  0.00     0.085 A 
ATOM      3  C9  UNK     1      40.109  17.905  -2.656  1.00  0.00     0.085 A 
ATOM      4  C10 UNK     1      38.580  17.921  -0.323  1.00  0.00     0.074 A 
ATOM      5  C11 UNK     1      39.738  19.117  -2.074  1.00  0.00     0.074 A 
ATOM      6  C14 UNK     1      38.972  19.125  -0.907  1.00  0.00     0.071 A 
ENDROOT
BRANCH   1   7
ATOM      7  C4  UNK     1      40.106  15.434  -2.679  1.00  0.00     0.165 C 
ATOM      8  O1  UNK     1      39.274  14.745  -3.301  1.00  0.00    -0.292 OA
BRANCH   7   9
ATOM      9  C2  UNK     1      41.556  14.937  -2.550  1.00  0.00     0.088 C 
BRANCH   9  10
ATOM     10  C1  UNK     1      42.005  14.754  -1.098  1.00  0.00     0.046 C 
BRANCH  10  11
ATOM     11  C3  UNK     1      41.555  13.429  -0.539  1.00  0.00    -0.058 A 
ATOM     12  C6  UNK     1      41.044  13.372   0.749  1.00  0.00     0.010 A 
ATOM     13  C12 UNK     1      40.627  12.145   1.267  1.00  0.00     0.037 A 
ATOM     14  C15 UNK     1      40.726  10.990   0.491  1.00  0.00     0.065 A 
ATOM     15  C13 UNK     1      41.242  11.062  -0.803  1.00  0.00     0.037 A 
ATOM     16  C7  UNK     1      41.658  12.288  -1.321  1.00  0.00     0.010 A 
BRANCH  14  17
ATOM     17  O5  UNK     1      40.318   9.795   0.995  1.00  0.00    -0.361 OA
ATOM     18  H14 UNK     1      40.810   9.081   0.555  1.00  0.00     0.217 HD
ENDBRANCH  14  17
ENDBRANCH  10  11
ENDBRANCH   9  10
ENDBRANCH   7   9
ENDBRANCH   1   7
BRANCH   2  19
ATOM     19  O2  UNK     1      38.558  15.544  -0.317  1.00  0.00    -0.360 OA
ATOM     20  H11 UNK     1      38.081  15.722   0.509  1.00  0.00     0.217 HD
ENDBRANCH   2  19
BRANCH   3  21
ATOM     21  O3  UNK     1      40.858  17.920  -3.796  1.00  0.00    -0.360 OA
ATOM     22  H12 UNK     1      40.788  18.797  -4.211  1.00  0.00     0.217 HD
ENDBRANCH   3  21
BRANCH   6  23
ATOM     23  O4  UNK     1      38.609  20.307  -0.340  1.00  0.00    -0.361 OA
ATOM     24  H13 UNK     1      37.643  20.403  -0.404  1.00  0.00     0.217 HD
ENDBRANCH   6  23
TORSDOF 8
ENDMDL
MODEL 13
REMARK VINA RESULT:      -8.0      1.635      7.473
REMARK  8 active torsions:
REMARK  status: ('A' for Active; 'I' for Inactive)
REMARK    1  A    between atoms: O2_2  and  C8_13 
REMARK    2  A    between atoms: O3_3  and  C9_14 
REMARK    3  A    between atoms: O4_4  and  C14_19 
REMARK    4  A    between atoms: O5_5  and  C15_20 
REMARK    5  A    between atoms: C1_6  and  C2_7 
REMARK    6  A    between atoms: C1_6  and  C3_8 
REMARK    7  A    between atoms: C2_7  and  C4_9 
REMARK    8  A    between atoms: C4_9  and  C5_10 
ROOT
ATOM      1  C5  UNK     1      39.060  18.193  -0.716  1.00  0.00     0.076 A 
ATOM      2  C8  UNK     1      39.731  18.981  -1.651  1.00  0.00     0.085 A 
ATOM      3  C9  UNK     1      38.412  18.794   0.364  1.00  0.00     0.085 A 
ATOM      4  C10 UNK     1      39.755  20.368  -1.507  1.00  0.00     0.074 A 
ATOM      5  C11 UNK     1      38.436  20.180   0.509  1.00  0.00     0.074 A 
ATOM      6  C14 UNK     1      39.108  20.968  -0.427  1.00  0.00     0.071 A 
ENDROOT
BRANCH   1   7
ATOM      7  C4  UNK     1      39.034  16.743  -0.868  1.00  0.00     0.165 C 
ATOM      8  O1  UNK     1      37.952  16.127  -0.899  1.00  0.00    -0.292 OA
BRANCH   7   9
ATOM      9  C2  UNK     1      40.355  15.964  -0.990  1.00  0.00     0.088 C 
BRANCH   9  10
ATOM     10  C1  UNK     1      40.255  14.746  -1.911  1.00  0.00     0.046 C 
BRANCH  10  11
ATOM     11  C3  UNK     1      40.449  13.458  -1.154  1.00  0.00    -0.058 A 
ATOM     12  C6  UNK     1      39.747  13.247   0.023  1.00  0.00     0.010 A 
ATOM     13  C12 UNK     1      39.926  12.054   0.724  1.00  0.00     0.037 A 
ATOM     14  C15 UNK     1      40.807  11.086   0.240  1.00  0.00     0.065 A 
ATOM     15  C13 UNK     1      41.507  11.311  -0.946  1.00  0.00     0.037 A 
ATOM     16  C7  UNK     1      41.327  12.503  -1.646  1.00  0.00     0.010 A 
BRANCH  14  17
ATOM     17  O5  UNK     1      40.981   9.922   0.923  1.00  0.00    -0.361 OA
ATOM     18  H14 UNK     1      40.297   9.289   0.646  1.00  0.00     0.217 HD
ENDBRANCH  14  17
ENDBRANCH  10  11
ENDBRANCH   9  10
ENDBRANCH   7   9
ENDBRANCH   1   7
BRANCH   2  19
ATOM     19  O2  UNK     1      40.370  18.416  -2.715  1.00  0.00    -0.360 OA
ATOM     20  H11 UNK     1      40.387  17.449  -2.629  1.00  0.00     0.217 HD
ENDBRANCH   2  19
BRANCH   3  21
ATOM     21  O3  UNK     1      37.750  18.042   1.289  1.00  0.00    -0.360 OA
ATOM     22  H12 UNK     1      37.972  18.365   2.180  1.00  0.00     0.217 HD
ENDBRANCH   3  21
BRANCH   6  23
ATOM     23  O4  UNK     1      39.132  22.321  -0.284  1.00  0.00    -0.361 OA
ATOM     24  H13 UNK     1      38.670  22.560   0.538  1.00  0.00     0.217 HD
ENDBRANCH   6  23
TORSDOF 8
ENDMDL
MODEL 14
REMARK VINA RESULT:      -8.0      1.635      7.573
REMARK  8 active torsions:
REMARK  status: ('A' for Active; 'I' for Inactive)
REMARK    1  A    between atoms: O2_2  and  C8_13 
REMARK    2  A    between atoms: O3_3  and  C9_14 
REMARK    3  A    between atoms: O4_4  and  C14_19 
REMARK    4  A    between atoms: O5_5  and  C15_20 
REMARK    5  A    between atoms: C1_6  and  C2_7 
REMARK    6  A    between atoms: C1_6  and  C3_8 
REMARK    7  A    between atoms: C2_7  and  C4_9 
REMARK    8  A    between atoms: C4_9  and  C5_10 
ROOT
ATOM      1  C5  UNK     1      39.060  18.194  -0.717  1.00  0.00     0.076 A 
ATOM      2  C8  UNK     1      38.414  18.794   0.364  1.00  0.00     0.085 A 
ATOM      3  C9  UNK     1      39.731  18.982  -1.652  1.00  0.00     0.085 A 
ATOM      4  C10 UNK     1      38.439  20.181   0.510  1.00  0.00     0.074 A 
ATOM      5  C11 UNK     1      39.756  20.369  -1.507  1.00  0.00     0.074 A 
ATOM      6  C14 UNK     1      39.110  20.969  -0.426  1.00  0.00     0.071 A 
ENDROOT
BRANCH   1   7
ATOM      7  C4  UNK     1      39.033  16.744  -0.868  1.00  0.00     0.165 C 
ATOM      8  O1  UNK     1      37.950  16.128  -0.897  1.00  0.00    -0.292 OA
BRANCH   7   9
ATOM      9  C2  UNK     1      40.353  15.964  -0.989  1.00  0.00     0.088 C 
BRANCH   9  10
ATOM     10  C1  UNK     1      40.252  14.746  -1.909  1.00  0.00     0.046 C 
BRANCH  10  11
ATOM     11  C3  UNK     1      40.444  13.457  -1.151  1.00  0.00    -0.058 A 
ATOM     12  C6  UNK     1      39.738  13.246   0.023  1.00  0.00     0.010 A 
ATOM     13  C12 UNK     1      39.916  12.053   0.725  1.00  0.00     0.037 A 
ATOM     14  C15 UNK     1      40.799  11.086   0.244  1.00  0.00     0.065 A 
ATOM     15  C13 UNK     1      41.504  11.311  -0.939  1.00  0.00     0.037 A 
ATOM     16  C7  UNK     1      41.326  12.504  -1.640  1.00  0.00     0.010 A 
BRANCH  14  17
ATOM     17  O5  UNK     1      40.971   9.922   0.928  1.00  0.00    -0.361 OA
ATOM     18  H14 UNK     1      41.342  10.122   1.803  1.00  0.00     0.217 HD
ENDBRANCH  14  17
ENDBRANCH  10  11
ENDBRANCH   9  10
ENDBRANCH   7   9
ENDBRANCH   1   7
BRANCH   2  19
ATOM     19  O2  UNK     1      37.753  18.044   1.291  1.00  0.00    -0.360 OA
ATOM     20  H11 UNK     1      37.454  17.206   0.903  1.00  0.00     0.217 HD
ENDBRANCH   2  19
BRANCH   3  21
ATOM     21  O3  UNK     1      40.369  18.416  -2.716  1.00  0.00    -0.360 OA
ATOM     22  H12 UNK     1      41.097  18.997  -2.996  1.00  0.00     0.217 HD
ENDBRANCH   3  21
BRANCH   6  23
ATOM     23  O4  UNK     1      39.134  22.322  -0.285  1.00  0.00    -0.361 OA
ATOM     24  H13 UNK     1      39.871  22.680  -0.808  1.00  0.00     0.217 HD
ENDBRANCH   6  23
TORSDOF 8
ENDMDL
MODEL 15
REMARK VINA RESULT:      -7.9      3.452      7.482
REMARK  8 active torsions:
REMARK  status: ('A' for Active; 'I' for Inactive)
REMARK    1  A    between atoms: O2_2  and  C8_13 
REMARK    2  A    between atoms: O3_3  and  C9_14 
REMARK    3  A    between atoms: O4_4  and  C14_19 
REMARK    4  A    between atoms: O5_5  and  C15_20 
REMARK    5  A    between atoms: C1_6  and  C2_7 
REMARK    6  A    between atoms: C1_6  and  C3_8 
REMARK    7  A    between atoms: C2_7  and  C4_9 
REMARK    8  A    between atoms: C4_9  and  C5_10 
ROOT
ATOM      1  C5  UNK     1      40.209  13.701  -1.162  1.00  0.00     0.076 A 
ATOM      2  C8  UNK     1      38.825  13.634  -1.003  1.00  0.00     0.085 A 
ATOM      3  C9  UNK     1      40.848  14.941  -1.182  1.00  0.00     0.085 A 
ATOM      4  C10 UNK     1      38.080  14.805  -0.864  1.00  0.00     0.074 A 
ATOM      5  C11 UNK     1      40.105  16.112  -1.043  1.00  0.00     0.074 A 
ATOM      6  C14 UNK     1      38.720  16.044  -0.884  1.00  0.00     0.071 A 
ENDROOT
BRANCH   1   7
ATOM      7  C4  UNK     1      40.986  12.476  -1.307  1.00  0.00     0.165 C 
ATOM      8  O1  UNK     1      41.512  12.183  -2.398  1.00  0.00    -0.292 OA
BRANCH   7   9
ATOM      9  C2  UNK     1      41.158  11.533  -0.104  1.00  0.00     0.088 C 
BRANCH   9  10
ATOM     10  C1  UNK     1      41.457  12.269   1.203  1.00  0.00     0.046 C 
BRANCH  10  11
ATOM     11  C3  UNK     1      40.560  11.806   2.322  1.00  0.00    -0.058 A 
ATOM     12  C6  UNK     1      40.302  12.656   3.386  1.00  0.00     0.010 A 
ATOM     13  C12 UNK     1      39.471  12.227   4.421  1.00  0.00     0.037 A 
ATOM     14  C15 UNK     1      38.909  10.950   4.381  1.00  0.00     0.065 A 
ATOM     15  C13 UNK     1      39.177  10.104   3.305  1.00  0.00     0.037 A 
ATOM     16  C7  UNK     1      40.007  10.534   2.270  1.00  0.00     0.010 A 
BRANCH  14  17
ATOM     17  O5  UNK     1      38.097  10.533   5.389  1.00  0.00    -0.361 OA
ATOM     18  H14 UNK     1      38.130  11.183   6.111  1.00  0.00     0.217 HD
ENDBRANCH  14  17
ENDBRANCH  10  11
ENDBRANCH   9  10
ENDBRANCH   7   9
ENDBRANCH   1   7
BRANCH   2  19
ATOM     19  O2  UNK     1      38.179  12.433  -0.980  1.00  0.00    -0.360 OA
ATOM     20  H11 UNK     1      37.558  12.392  -0.236  1.00  0.00     0.217 HD
ENDBRANCH   2  19
BRANCH   3  21
ATOM     21  O3  UNK     1      42.200  15.029  -1.336  1.00  0.00    -0.360 OA
ATOM     22  H12 UNK     1      42.553  14.150  -1.557  1.00  0.00     0.217 HD
ENDBRANCH   3  21
BRANCH   6  23
ATOM     23  O4  UNK     1      37.994  17.188  -0.749  1.00  0.00    -0.361 OA
ATOM     24  H13 UNK     1      38.224  17.609   0.097  1.00  0.00     0.217 HD
ENDBRANCH   6  23
TORSDOF 8
ENDMDL
MODEL 16
REMARK VINA RESULT:      -7.9      3.467      7.272
REMARK  8 active torsions:
REMARK  status: ('A' for Active; 'I' for Inactive)
REMARK    1  A    between atoms: O2_2  and  C8_13 
REMARK    2  A    between atoms: O3_3  and  C9_14 
REMARK    3  A    between atoms: O4_4  and  C14_19 
REMARK    4  A    between atoms: O5_5  and  C15_20 
REMARK    5  A    between atoms: C1_6  and  C2_7 
REMARK    6  A    between atoms: C1_6  and  C3_8 
REMARK    7  A    between atoms: C2_7  and  C4_9 
REMARK    8  A    between atoms: C4_9  and  C5_10 
ROOT
ATOM      1  C5  UNK     1      40.237  13.672  -1.150  1.00  0.00     0.076 A 
ATOM      2  C8  UNK     1      40.863  14.916  -1.224  1.00  0.00     0.085 A 
ATOM      3  C9  UNK     1      38.859  13.596  -0.944  1.00  0.00     0.085 A 
ATOM      4  C10 UNK     1      40.112  16.084  -1.091  1.00  0.00     0.074 A 
ATOM      5  C11 UNK     1      38.108  14.763  -0.812  1.00  0.00     0.074 A 
ATOM      6  C14 UNK     1      38.735  16.008  -0.885  1.00  0.00     0.071 A 
ENDROOT
BRANCH   1   7
ATOM      7  C4  UNK     1      41.023  12.451  -1.289  1.00  0.00     0.165 C 
ATOM      8  O1  UNK     1      41.559  12.162  -2.376  1.00  0.00    -0.292 OA
BRANCH   7   9
ATOM      9  C2  UNK     1      41.190  11.508  -0.086  1.00  0.00     0.088 C 
BRANCH   9  10
ATOM     10  C1  UNK     1      41.484  12.245   1.223  1.00  0.00     0.046 C 
BRANCH  10  11
ATOM     11  C3  UNK     1      40.575  11.790   2.335  1.00  0.00    -0.058 A 
ATOM     12  C6  UNK     1      39.995  10.532   2.270  1.00  0.00     0.010 A 
ATOM     13  C12 UNK     1      39.153  10.110   3.300  1.00  0.00     0.037 A 
ATOM     14  C15 UNK     1      38.900  10.954   4.382  1.00  0.00     0.065 A 
ATOM     15  C13 UNK     1      39.489  12.217   4.435  1.00  0.00     0.037 A 
ATOM     16  C7  UNK     1      40.331  12.637   3.406  1.00  0.00     0.010 A 
BRANCH  14  17
ATOM     17  O5  UNK     1      38.080  10.542   5.387  1.00  0.00    -0.361 OA
ATOM     18  H14 UNK     1      37.923  11.287   5.991  1.00  0.00     0.217 HD
ENDBRANCH  14  17
ENDBRANCH  10  11
ENDBRANCH   9  10
ENDBRANCH   7   9
ENDBRANCH   1   7
BRANCH   2  19
ATOM     19  O2  UNK     1      42.208  15.013  -1.425  1.00  0.00    -0.360 OA
ATOM     20  H11 UNK     1      42.407  15.702  -2.080  1.00  0.00     0.217 HD
ENDBRANCH   2  19
BRANCH   3  21
ATOM     21  O3  UNK     1      38.227  12.390  -0.869  1.00  0.00    -0.360 OA
ATOM     22  H12 UNK     1      37.266  12.531  -0.923  1.00  0.00     0.217 HD
ENDBRANCH   3  21
BRANCH   6  23
ATOM     23  O4  UNK     1      38.002  17.147  -0.755  1.00  0.00    -0.361 OA
ATOM     24  H13 UNK     1      38.430  17.857  -1.264  1.00  0.00     0.217 HD
ENDBRANCH   6  23
TORSDOF 8
ENDMDL
MODEL 17
REMARK VINA RESULT:      -7.7      1.640      7.368
REMARK  8 active torsions:
REMARK  status: ('A' for Active; 'I' for Inactive)
REMARK    1  A    between atoms: O2_2  and  C8_13 
REMARK    2  A    between atoms: O3_3  and  C9_14 
REMARK    3  A    between atoms: O4_4  and  C14_19 
REMARK    4  A    between atoms: O5_5  and  C15_20 
REMARK    5  A    between atoms: C1_6  and  C2_7 
REMARK    6  A    between atoms: C1_6  and  C3_8 
REMARK    7  A    between atoms: C2_7  and  C4_9 
REMARK    8  A    between atoms: C4_9  and  C5_10 
ROOT
ATOM      1  C5  UNK     1      39.479  19.598  -1.100  1.00  0.00     0.076 A 
ATOM      2  C8  UNK     1      40.060  20.833  -1.390  1.00  0.00     0.085 A 
ATOM      3  C9  UNK     1      38.729  19.437   0.064  1.00  0.00     0.085 A 
ATOM      4  C10 UNK     1      39.889  21.906  -0.516  1.00  0.00     0.074 A 
ATOM      5  C11 UNK     1      38.558  20.510   0.938  1.00  0.00     0.074 A 
ATOM      6  C14 UNK     1      39.139  21.746   0.648  1.00  0.00     0.071 A 
ENDROOT
BRANCH   1   7
ATOM      7  C4  UNK     1      39.658  18.477  -2.015  1.00  0.00     0.165 C 
ATOM      8  O1  UNK     1      39.652  18.656  -3.248  1.00  0.00    -0.292 OA
BRANCH   7   9
ATOM      9  C2  UNK     1      39.852  17.057  -1.456  1.00  0.00     0.088 C 
BRANCH   9  10
ATOM     10  C1  UNK     1      40.373  16.064  -2.497  1.00  0.00     0.046 C 
BRANCH  10  11
ATOM     11  C3  UNK     1      40.533  14.682  -1.916  1.00  0.00    -0.058 A 
ATOM     12  C6  UNK     1      39.452  14.071  -1.301  1.00  0.00     0.010 A 
ATOM     13  C12 UNK     1      39.600  12.792  -0.765  1.00  0.00     0.037 A 
ATOM     14  C15 UNK     1      40.830  12.139  -0.848  1.00  0.00     0.065 A 
ATOM     15  C13 UNK     1      41.911  12.765  -1.470  1.00  0.00     0.037 A 
ATOM     16  C7  UNK     1      41.762  14.043  -2.007  1.00  0.00     0.010 A 
BRANCH  14  17
ATOM     17  O5  UNK     1      40.975  10.891  -0.326  1.00  0.00    -0.361 OA
ATOM     18  H14 UNK     1      41.486  10.951   0.498  1.00  0.00     0.217 HD
ENDBRANCH  14  17
ENDBRANCH  10  11
ENDBRANCH   9  10
ENDBRANCH   7   9
ENDBRANCH   1   7
BRANCH   2  19
ATOM     19  O2  UNK     1      40.797  21.013  -2.523  1.00  0.00    -0.360 OA
ATOM     20  H11 UNK     1      41.374  20.249  -2.681  1.00  0.00     0.217 HD
ENDBRANCH   2  19
BRANCH   3  21
ATOM     21  O3  UNK     1      38.152  18.239   0.366  1.00  0.00    -0.360 OA
ATOM     22  H12 UNK     1      37.243  18.393   0.677  1.00  0.00     0.217 HD
ENDBRANCH   3  21
BRANCH   6  23
ATOM     23  O4  UNK     1      38.973  22.792   1.502  1.00  0.00    -0.361 OA
ATOM     24  H13 UNK     1      39.626  23.480   1.288  1.00  0.00     0.217 HD
ENDBRANCH   6  23
TORSDOF 8
ENDMDL
MODEL 18
REMARK VINA RESULT:      -7.7      1.639      7.485
REMARK  8 active torsions:
REMARK  status: ('A' for Active; 'I' for Inactive)
REMARK    1  A    between atoms: O2_2  and  C8_13 
REMARK    2  A    between atoms: O3_3  and  C9_14 
REMARK    3  A    between atoms: O4_4  and  C14_19 
REMARK    4  A    between atoms: O5_5  and  C15_20 
REMARK    5  A    between atoms: C1_6  and  C2_7 
REMARK    6  A    between atoms: C1_6  and  C3_8 
REMARK    7  A    between atoms: C2_7  and  C4_9 
REMARK    8  A    between atoms: C4_9  and  C5_10 
ROOT
ATOM      1  C5  UNK     1      39.481  19.600  -1.105  1.00  0.00     0.076 A 
ATOM      2  C8  UNK     1      38.731  19.439   0.060  1.00  0.00     0.085 A 
ATOM      3  C9  UNK     1      40.062  20.835  -1.394  1.00  0.00     0.085 A 
ATOM      4  C10 UNK     1      38.560  20.512   0.934  1.00  0.00     0.074 A 
ATOM      5  C11 UNK     1      39.892  21.908  -0.520  1.00  0.00     0.074 A 
ATOM      6  C14 UNK     1      39.141  21.747   0.645  1.00  0.00     0.071 A 
ENDROOT
BRANCH   1   7
ATOM      7  C4  UNK     1      39.659  18.478  -2.018  1.00  0.00     0.165 C 
ATOM      8  O1  UNK     1      39.653  18.655  -3.252  1.00  0.00    -0.292 OA
BRANCH   7   9
ATOM      9  C2  UNK     1      39.854  17.059  -1.457  1.00  0.00     0.088 C 
BRANCH   9  10
ATOM     10  C1  UNK     1      40.368  16.063  -2.499  1.00  0.00     0.046 C 
BRANCH  10  11
ATOM     11  C3  UNK     1      40.529  14.682  -1.917  1.00  0.00    -0.058 A 
ATOM     12  C6  UNK     1      39.448  14.072  -1.299  1.00  0.00     0.010 A 
ATOM     13  C12 UNK     1      39.597  12.794  -0.760  1.00  0.00     0.037 A 
ATOM     14  C15 UNK     1      40.827  12.140  -0.845  1.00  0.00     0.065 A 
ATOM     15  C13 UNK     1      41.907  12.765  -1.469  1.00  0.00     0.037 A 
ATOM     16  C7  UNK     1      41.758  14.043  -2.008  1.00  0.00     0.010 A 
BRANCH  14  17
ATOM     17  O5  UNK     1      40.972  10.893  -0.322  1.00  0.00    -0.361 OA
ATOM     18  H14 UNK     1      41.878  10.583  -0.491  1.00  0.00     0.217 HD
ENDBRANCH  14  17
ENDBRANCH  10  11
ENDBRANCH   9  10
ENDBRANCH   7   9
ENDBRANCH   1   7
BRANCH   2  19
ATOM     19  O2  UNK     1      38.155  18.241   0.362  1.00  0.00    -0.360 OA
ATOM     20  H11 UNK     1      38.457  17.924   1.228  1.00  0.00     0.217 HD
ENDBRANCH   2  19
BRANCH   3  21
ATOM     21  O3  UNK     1      40.800  21.014  -2.526  1.00  0.00    -0.360 OA
ATOM     22  H12 UNK     1      41.491  21.678  -2.354  1.00  0.00     0.217 HD
ENDBRANCH   3  21
BRANCH   6  23
ATOM     23  O4  UNK     1      38.974  22.794   1.498  1.00  0.00    -0.361 OA
ATOM     24  H13 UNK     1      39.273  23.609   1.058  1.00  0.00     0.217 HD
ENDBRANCH   6  23
TORSDOF 8
ENDMDL
MODEL 19
REMARK VINA RESULT:      -7.7      1.787      7.752
REMARK  8 active torsions:
REMARK  status: ('A' for Active; 'I' for Inactive)
REMARK    1  A    between atoms: O2_2  and  C8_13 
REMARK    2  A    between atoms: O3_3  and  C9_14 
REMARK    3  A    between atoms: O4_4  and  C14_19 
REMARK    4  A    between atoms: O5_5  and  C15_20 
REMARK    5  A    between atoms: C1_6  and  C2_7 
REMARK    6  A    between atoms: C1_6  and  C3_8 
REMARK    7  A    between atoms: C2_7  and  C4_9 
REMARK    8  A    between atoms: C4_9  and  C5_10 
ROOT
ATOM      1  C5  UNK     1      39.251  20.245  -0.625  1.00  0.00     0.076 A 
ATOM      2  C8  UNK     1      38.812  20.833   0.562  1.00  0.00     0.085 A 
ATOM      3  C9  UNK     1      40.075  20.959  -1.494  1.00  0.00     0.085 A 
ATOM      4  C10 UNK     1      39.198  22.136   0.878  1.00  0.00     0.074 A 
ATOM      5  C11 UNK     1      40.462  22.261  -1.178  1.00  0.00     0.074 A 
ATOM      6  C14 UNK     1      40.023  22.850   0.009  1.00  0.00     0.071 A 
ENDROOT
BRANCH   1   7
ATOM      7  C4  UNK     1      38.847  18.882  -0.954  1.00  0.00     0.165 C 
ATOM      8  O1  UNK     1      37.675  18.633  -1.299  1.00  0.00    -0.292 OA
BRANCH   7   9
ATOM      9  C2  UNK     1      39.874  17.740  -0.875  1.00  0.00     0.088 C 
BRANCH   9  10
ATOM     10  C1  UNK     1      39.970  16.923  -2.165  1.00  0.00     0.046 C 
BRANCH  10  11
ATOM     11  C3  UNK     1      40.267  15.472  -1.884  1.00  0.00    -0.058 A 
ATOM     12  C6  UNK     1      41.542  14.980  -2.121  1.00  0.00     0.010 A 
ATOM     13  C12 UNK     1      41.817  13.637  -1.861  1.00  0.00     0.037 A 
ATOM     14  C15 UNK     1      40.814  12.802  -1.369  1.00  0.00     0.065 A 
ATOM     15  C13 UNK     1      39.536  13.310  -1.135  1.00  0.00     0.037 A 
ATOM     16  C7  UNK     1      39.261  14.652  -1.394  1.00  0.00     0.010 A 
BRANCH  14  17
ATOM     17  O5  UNK     1      41.083  11.493  -1.114  1.00  0.00    -0.361 OA
ATOM     18  H14 UNK     1      40.245  11.003  -1.058  1.00  0.00     0.217 HD
ENDBRANCH  14  17
ENDBRANCH  10  11
ENDBRANCH   9  10
ENDBRANCH   7   9
ENDBRANCH   1   7
BRANCH   2  19
ATOM     19  O2  UNK     1      38.006  20.153   1.426  1.00  0.00    -0.360 OA
ATOM     20  H11 UNK     1      38.515  19.829   2.186  1.00  0.00     0.217 HD
ENDBRANCH   2  19
BRANCH   3  21
ATOM     21  O3  UNK     1      40.515  20.402  -2.658  1.00  0.00    -0.360 OA
ATOM     22  H12 UNK     1      41.011  19.589  -2.455  1.00  0.00     0.217 HD
ENDBRANCH   3  21
BRANCH   6  23
ATOM     23  O4  UNK     1      40.399  24.121   0.317  1.00  0.00    -0.361 OA
ATOM     24  H13 UNK     1      41.292  24.279  -0.036  1.00  0.00     0.217 HD
ENDBRANCH   6  23
TORSDOF 8
ENDMDL
MODEL 20
REMARK VINA RESULT:      -7.0      1.114      2.351
REMARK  8 active torsions:
REMARK  status: ('A' for Active; 'I' for Inactive)
REMARK    1  A    between atoms: O2_2  and  C8_13 
REMARK    2  A    between atoms: O3_3  and  C9_14 
REMARK    3  A    between atoms: O4_4  and  C14_19 
REMARK    4  A    between atoms: O5_5  and  C15_20 
REMARK    5  A    between atoms: C1_6  and  C2_7 
REMARK    6  A    between atoms: C1_6  and  C3_8 
REMARK    7  A    between atoms: C2_7  and  C4_9 
REMARK    8  A    between atoms: C4_9  and  C5_10 
ROOT
ATOM      1  C5  UNK     1      40.008  14.452  -1.287  1.00  0.00     0.076 A 
ATOM      2  C8  UNK     1      39.405  13.315  -0.748  1.00  0.00     0.085 A 
ATOM      3  C9  UNK     1      41.273  14.361  -1.866  1.00  0.00     0.085 A 
ATOM      4  C10 UNK     1      40.068  12.089  -0.787  1.00  0.00     0.074 A 
ATOM      5  C11 UNK     1      41.937  13.136  -1.905  1.00  0.00     0.074 A 
ATOM      6  C14 UNK     1      41.334  11.999  -1.366  1.00  0.00     0.071 A 
ENDROOT
BRANCH   1   7
ATOM      7  C4  UNK     1      39.313  15.734  -1.246  1.00  0.00     0.165 C 
ATOM      8  O1  UNK     1      38.072  15.787  -1.349  1.00  0.00    -0.292 OA
BRANCH   7   9
ATOM      9  C2  UNK     1      40.117  17.034  -1.078  1.00  0.00     0.088 C 
BRANCH   9  10
ATOM     10  C1  UNK     1      39.598  18.182  -1.946  1.00  0.00     0.046 C 
BRANCH  10  11
ATOM     11  C3  UNK     1      39.497  19.468  -1.168  1.00  0.00    -0.058 A 
ATOM     12  C6  UNK     1      40.201  20.583  -1.598  1.00  0.00     0.010 A 
ATOM     13  C12 UNK     1      40.108  21.774  -0.877  1.00  0.00     0.037 A 
ATOM     14  C15 UNK     1      39.312  21.835   0.268  1.00  0.00     0.065 A 
ATOM     15  C13 UNK     1      38.609  20.706   0.690  1.00  0.00     0.037 A 
ATOM     16  C7  UNK     1      38.703  19.516  -0.031  1.00  0.00     0.010 A 
BRANCH  14  17
ATOM     17  O5  UNK     1      39.220  22.997   0.970  1.00  0.00    -0.361 OA
ATOM     18  H14 UNK     1      38.465  23.510   0.634  1.00  0.00     0.217 HD
ENDBRANCH  14  17
ENDBRANCH  10  11
ENDBRANCH   9  10
ENDBRANCH   7   9
ENDBRANCH   1   7
BRANCH   2  19
ATOM     19  O2  UNK     1      38.168  13.381  -0.178  1.00  0.00    -0.360 OA
ATOM     20  H11 UNK     1      38.181  13.957   0.603  1.00  0.00     0.217 HD
ENDBRANCH   2  19
BRANCH   3  21
ATOM     21  O3  UNK     1      41.880  15.460  -2.399  1.00  0.00    -0.360 OA
ATOM     22  H12 UNK     1      41.619  15.546  -3.332  1.00  0.00     0.217 HD
ENDBRANCH   3  21
BRANCH   6  23
ATOM     23  O4  UNK     1      41.982  10.803  -1.404  1.00  0.00    -0.361 OA
ATOM     24  H13 UNK     1      41.886  10.420  -2.293  1.00  0.00     0.217 HD
ENDBRANCH   6  23
TORSDOF 8
ENDMDL
