MODEL 1
REMARK VINA RESULT:      -6.0      0.000      0.000
REMARK  8 active torsions:
REMARK  status: ('A' for Active; 'I' for Inactive)
REMARK    1  A    between atoms: O2_2  and  C8_13 
REMARK    2  A    between atoms: O3_3  and  C9_14 
REMARK    3  A    between atoms: O4_4  and  C14_19 
REMARK    4  A    between atoms: O5_5  and  C15_20 
REMARK    5  A    between atoms: C1_6  and  C2_7 
REMARK    6  A    between atoms: C1_6  and  C3_8 
REMARK    7  A    between atoms: C2_7  and  C4_9 
REMARK    8  A    between atoms: C4_9  and  C5_10 
ROOT
ATOM      1  C5  UNK     1      40.968  19.438  11.517  1.00  0.00     0.076 A 
ATOM      2  C8  UNK     1      42.155  18.791  11.172  1.00  0.00     0.085 A 
ATOM      3  C9  UNK     1      40.225  18.993  12.610  1.00  0.00     0.085 A 
ATOM      4  C10 UNK     1      42.597  17.700  11.919  1.00  0.00     0.074 A 
ATOM      5  C11 UNK     1      40.666  17.903  13.358  1.00  0.00     0.074 A 
ATOM      6  C14 UNK     1      41.854  17.255  13.012  1.00  0.00     0.071 A 
ENDROOT
BRANCH   1   7
ATOM      7  C4  UNK     1      40.507  20.579  10.735  1.00  0.00     0.165 C 
ATOM      8  O1  UNK     1      39.830  20.410   9.702  1.00  0.00    -0.292 OA
BRANCH   7   9
ATOM      9  C2  UNK     1      40.859  22.007  11.185  1.00  0.00     0.088 C 
BRANCH   9  10
ATOM     10  C1  UNK     1      42.260  22.448  10.757  1.00  0.00     0.046 C 
BRANCH  10  11
ATOM     11  C3  UNK     1      42.526  23.886  11.119  1.00  0.00    -0.058 A 
ATOM     12  C6  UNK     1      41.846  24.459  12.182  1.00  0.00     0.010 A 
ATOM     13  C12 UNK     1      42.093  25.791  12.517  1.00  0.00     0.037 A 
ATOM     14  C15 UNK     1      43.018  26.535  11.783  1.00  0.00     0.065 A 
ATOM     15  C13 UNK     1      43.695  25.947  10.715  1.00  0.00     0.037 A 
ATOM     16  C7  UNK     1      43.448  24.615  10.381  1.00  0.00     0.010 A 
BRANCH  14  17
ATOM     17  O5  UNK     1      43.260  27.833  12.111  1.00  0.00    -0.361 OA
ATOM     18  H14 UNK     1      44.218  27.957  12.220  1.00  0.00     0.217 HD
ENDBRANCH  14  17
ENDBRANCH  10  11
ENDBRANCH   9  10
ENDBRANCH   7   9
ENDBRANCH   1   7
BRANCH   2  19
ATOM     19  O2  UNK     1      42.898  19.209  10.108  1.00  0.00    -0.360 OA
ATOM     20  H11 UNK     1      42.353  19.722   9.490  1.00  0.00     0.217 HD
ENDBRANCH   2  19
BRANCH   3  21
ATOM     21  O3  UNK     1      39.062  19.612  12.965  1.00  0.00    -0.360 OA
ATOM     22  H12 UNK     1      39.228  20.565  13.070  1.00  0.00     0.217 HD
ENDBRANCH   3  21
BRANCH   6  23
ATOM     23  O4  UNK     1      42.285  16.190  13.741  1.00  0.00    -0.361 OA
ATOM     24  H13 UNK     1      41.511  15.704  14.076  1.00  0.00     0.217 HD
ENDBRANCH   6  23
TORSDOF 8
ENDMDL
MODEL 2
REMARK VINA RESULT:      -6.0      0.008      1.863
REMARK  8 active torsions:
REMARK  status: ('A' for Active; 'I' for Inactive)
REMARK    1  A    between atoms: O2_2  and  C8_13 
REMARK    2  A    between atoms: O3_3  and  C9_14 
REMARK    3  A    between atoms: O4_4  and  C14_19 
REMARK    4  A    between atoms: O5_5  and  C15_20 
REMARK    5  A    between atoms: C1_6  and  C2_7 
REMARK    6  A    between atoms: C1_6  and  C3_8 
REMARK    7  A    between atoms: C2_7  and  C4_9 
REMARK    8  A    between atoms: C4_9  and  C5_10 
ROOT
ATOM      1  C5  UNK     1      40.975  19.438  11.516  1.00  0.00     0.076 A 
ATOM      2  C8  UNK     1      40.233  18.995  12.612  1.00  0.00     0.085 A 
ATOM      3  C9  UNK     1      42.160  18.789  11.170  1.00  0.00     0.085 A 
ATOM      4  C10 UNK     1      40.677  17.906  13.361  1.00  0.00     0.074 A 
ATOM      5  C11 UNK     1      42.605  17.700  11.918  1.00  0.00     0.074 A 
ATOM      6  C14 UNK     1      41.863  17.258  13.014  1.00  0.00     0.071 A 
ENDROOT
BRANCH   1   7
ATOM      7  C4  UNK     1      40.509  20.577  10.734  1.00  0.00     0.165 C 
ATOM      8  O1  UNK     1      39.830  20.404   9.703  1.00  0.00    -0.292 OA
BRANCH   7   9
ATOM      9  C2  UNK     1      40.860  22.006  11.180  1.00  0.00     0.088 C 
BRANCH   9  10
ATOM     10  C1  UNK     1      42.261  22.446  10.751  1.00  0.00     0.046 C 
BRANCH  10  11
ATOM     11  C3  UNK     1      42.528  23.885  11.113  1.00  0.00    -0.058 A 
ATOM     12  C6  UNK     1      41.847  24.459  12.175  1.00  0.00     0.010 A 
ATOM     13  C12 UNK     1      42.095  25.790  12.510  1.00  0.00     0.037 A 
ATOM     14  C15 UNK     1      43.020  26.533  11.776  1.00  0.00     0.065 A 
ATOM     15  C13 UNK     1      43.699  25.944  10.709  1.00  0.00     0.037 A 
ATOM     16  C7  UNK     1      43.451  24.613  10.375  1.00  0.00     0.010 A 
BRANCH  14  17
ATOM     17  O5  UNK     1      43.263  27.831  12.104  1.00  0.00    -0.361 OA
ATOM     18  H14 UNK     1      43.579  27.871  13.022  1.00  0.00     0.217 HD
ENDBRANCH  14  17
ENDBRANCH  10  11
ENDBRANCH   9  10
ENDBRANCH   7   9
ENDBRANCH   1   7
BRANCH   2  19
ATOM     19  O2  UNK     1      39.072  19.614  12.969  1.00  0.00    -0.360 OA
ATOM     20  H11 UNK     1      39.237  20.287  13.648  1.00  0.00     0.217 HD
ENDBRANCH   2  19
BRANCH   3  21
ATOM     21  O3  UNK     1      42.900  19.205  10.102  1.00  0.00    -0.360 OA
ATOM     22  H12 UNK     1      43.147  20.137  10.230  1.00  0.00     0.217 HD
ENDBRANCH   3  21
BRANCH   6  23
ATOM     23  O4  UNK     1      42.297  16.195  13.745  1.00  0.00    -0.361 OA
ATOM     24  H13 UNK     1      42.907  15.667  13.202  1.00  0.00     0.217 HD
ENDBRANCH   6  23
TORSDOF 8
ENDMDL
MODEL 3
REMARK VINA RESULT:      -5.8      4.292      7.194
REMARK  8 active torsions:
REMARK  status: ('A' for Active; 'I' for Inactive)
REMARK    1  A    between atoms: O2_2  and  C8_13 
REMARK    2  A    between atoms: O3_3  and  C9_14 
REMARK    3  A    between atoms: O4_4  and  C14_19 
REMARK    4  A    between atoms: O5_5  and  C15_20 
REMARK    5  A    between atoms: C1_6  and  C2_7 
REMARK    6  A    between atoms: C1_6  and  C3_8 
REMARK    7  A    between atoms: C2_7  and  C4_9 
REMARK    8  A    between atoms: C4_9  and  C5_10 
ROOT
ATOM      1  C5  UNK     1      41.597  25.454  12.633  1.00  0.00     0.076 A 
ATOM      2  C8  UNK     1      42.101  26.698  12.254  1.00  0.00     0.085 A 
ATOM      3  C9  UNK     1      42.012  24.301  11.965  1.00  0.00     0.085 A 
ATOM      4  C10 UNK     1      43.019  26.790  11.208  1.00  0.00     0.074 A 
ATOM      5  C11 UNK     1      42.930  24.392  10.920  1.00  0.00     0.074 A 
ATOM      6  C14 UNK     1      43.434  25.637  10.541  1.00  0.00     0.071 A 
ENDROOT
BRANCH   1   7
ATOM      7  C4  UNK     1      40.637  25.359  13.727  1.00  0.00     0.165 C 
ATOM      8  O1  UNK     1      40.999  24.982  14.858  1.00  0.00    -0.292 OA
BRANCH   7   9
ATOM      9  C2  UNK     1      39.162  25.723  13.484  1.00  0.00     0.088 C 
BRANCH   9  10
ATOM     10  C1  UNK     1      38.366  24.603  12.811  1.00  0.00     0.046 C 
BRANCH  10  11
ATOM     11  C3  UNK     1      37.380  25.145  11.809  1.00  0.00    -0.058 A 
ATOM     12  C6  UNK     1      36.453  24.290  11.234  1.00  0.00     0.010 A 
ATOM     13  C12 UNK     1      35.539  24.792  10.306  1.00  0.00     0.037 A 
ATOM     14  C15 UNK     1      35.565  26.145   9.964  1.00  0.00     0.065 A 
ATOM     15  C13 UNK     1      36.504  26.995  10.550  1.00  0.00     0.037 A 
ATOM     16  C7  UNK     1      37.416  26.492  11.477  1.00  0.00     0.010 A 
BRANCH  14  17
ATOM     17  O5  UNK     1      34.674  26.635   9.061  1.00  0.00    -0.361 OA
ATOM     18  H14 UNK     1      34.842  26.224   8.196  1.00  0.00     0.217 HD
ENDBRANCH  14  17
ENDBRANCH  10  11
ENDBRANCH   9  10
ENDBRANCH   7   9
ENDBRANCH   1   7
BRANCH   2  19
ATOM     19  O2  UNK     1      41.709  27.837  12.892  1.00  0.00    -0.360 OA
ATOM     20  H11 UNK     1      42.097  28.619  12.467  1.00  0.00     0.217 HD
ENDBRANCH   2  19
BRANCH   3  21
ATOM     21  O3  UNK     1      41.532  23.075  12.320  1.00  0.00    -0.360 OA
ATOM     22  H12 UNK     1      41.593  22.977  13.286  1.00  0.00     0.217 HD
ENDBRANCH   3  21
BRANCH   6  23
ATOM     23  O4  UNK     1      44.329  25.726   9.520  1.00  0.00    -0.361 OA
ATOM     24  H13 UNK     1      44.382  26.652   9.227  1.00  0.00     0.217 HD
ENDBRANCH   6  23
TORSDOF 8
ENDMDL
MODEL 4
REMARK VINA RESULT:      -5.8      3.852      4.937
REMARK  8 active torsions:
REMARK  status: ('A' for Active; 'I' for Inactive)
REMARK    1  A    between atoms: O2_2  and  C8_13 
REMARK    2  A    between atoms: O3_3  and  C9_14 
REMARK    3  A    between atoms: O4_4  and  C14_19 
REMARK    4  A    between atoms: O5_5  and  C15_20 
REMARK    5  A    between atoms: C1_6  and  C2_7 
REMARK    6  A    between atoms: C1_6  and  C3_8 
REMARK    7  A    between atoms: C2_7  and  C4_9 
REMARK    8  A    between atoms: C4_9  and  C5_10 
ROOT
ATOM      1  C5  UNK     1      39.714  20.114  11.710  1.00  0.00     0.076 A 
ATOM      2  C8  UNK     1      39.830  19.240  12.791  1.00  0.00     0.085 A 
ATOM      3  C9  UNK     1      40.690  20.123  10.713  1.00  0.00     0.085 A 
ATOM      4  C10 UNK     1      40.921  18.376  12.876  1.00  0.00     0.074 A 
ATOM      5  C11 UNK     1      41.781  19.259  10.797  1.00  0.00     0.074 A 
ATOM      6  C14 UNK     1      41.897  18.385  11.879  1.00  0.00     0.071 A 
ENDROOT
BRANCH   1   7
ATOM      7  C4  UNK     1      38.572  21.018  11.622  1.00  0.00     0.165 C 
ATOM      8  O1  UNK     1      37.425  20.573  11.423  1.00  0.00    -0.292 OA
BRANCH   7   9
ATOM      9  C2  UNK     1      38.783  22.534  11.773  1.00  0.00     0.088 C 
BRANCH   9  10
ATOM     10  C1  UNK     1      37.636  23.233  12.505  1.00  0.00     0.046 C 
BRANCH  10  11
ATOM     11  C3  UNK     1      36.893  24.181  11.599  1.00  0.00    -0.058 A 
ATOM     12  C6  UNK     1      37.167  25.538  11.660  1.00  0.00     0.010 A 
ATOM     13  C12 UNK     1      36.479  26.415  10.820  1.00  0.00     0.037 A 
ATOM     14  C15 UNK     1      35.522  25.924   9.931  1.00  0.00     0.065 A 
ATOM     15  C13 UNK     1      35.256  24.555   9.880  1.00  0.00     0.037 A 
ATOM     16  C7  UNK     1      35.945  23.679  10.719  1.00  0.00     0.010 A 
BRANCH  14  17
ATOM     17  O5  UNK     1      34.852  26.778   9.112  1.00  0.00    -0.361 OA
ATOM     18  H14 UNK     1      35.477  27.438   8.765  1.00  0.00     0.217 HD
ENDBRANCH  14  17
ENDBRANCH  10  11
ENDBRANCH   9  10
ENDBRANCH   7   9
ENDBRANCH   1   7
BRANCH   2  19
ATOM     19  O2  UNK     1      38.887  19.215  13.776  1.00  0.00    -0.360 OA
ATOM     20  H11 UNK     1      39.221  19.642  14.581  1.00  0.00     0.217 HD
ENDBRANCH   2  19
BRANCH   3  21
ATOM     21  O3  UNK     1      40.596  20.969   9.648  1.00  0.00    -0.360 OA
ATOM     22  H12 UNK     1      41.226  21.701   9.766  1.00  0.00     0.217 HD
ENDBRANCH   3  21
BRANCH   6  23
ATOM     23  O4  UNK     1      42.962  17.542  11.961  1.00  0.00    -0.361 OA
ATOM     24  H13 UNK     1      43.762  18.063  12.146  1.00  0.00     0.217 HD
ENDBRANCH   6  23
TORSDOF 8
ENDMDL
MODEL 5
REMARK VINA RESULT:      -5.8      3.853      4.654
REMARK  8 active torsions:
REMARK  status: ('A' for Active; 'I' for Inactive)
REMARK    1  A    between atoms: O2_2  and  C8_13 
REMARK    2  A    between atoms: O3_3  and  C9_14 
REMARK    3  A    between atoms: O4_4  and  C14_19 
REMARK    4  A    between atoms: O5_5  and  C15_20 
REMARK    5  A    between atoms: C1_6  and  C2_7 
REMARK    6  A    between atoms: C1_6  and  C3_8 
REMARK    7  A    between atoms: C2_7  and  C4_9 
REMARK    8  A    between atoms: C4_9  and  C5_10 
ROOT
ATOM      1  C5  UNK     1      39.707  20.116  11.711  1.00  0.00     0.076 A 
ATOM      2  C8  UNK     1      40.690  20.129  10.721  1.00  0.00     0.085 A 
ATOM      3  C9  UNK     1      39.818  19.241  12.791  1.00  0.00     0.085 A 
ATOM      4  C10 UNK     1      41.782  19.266  10.811  1.00  0.00     0.074 A 
ATOM      5  C11 UNK     1      40.909  18.379  12.882  1.00  0.00     0.074 A 
ATOM      6  C14 UNK     1      41.892  18.391  11.891  1.00  0.00     0.071 A 
ENDROOT
BRANCH   1   7
ATOM      7  C4  UNK     1      38.566  21.019  11.616  1.00  0.00     0.165 C 
ATOM      8  O1  UNK     1      37.422  20.576  11.397  1.00  0.00    -0.292 OA
BRANCH   7   9
ATOM      9  C2  UNK     1      38.773  22.534  11.783  1.00  0.00     0.088 C 
BRANCH   9  10
ATOM     10  C1  UNK     1      37.614  23.227  12.501  1.00  0.00     0.046 C 
BRANCH  10  11
ATOM     11  C3  UNK     1      36.886  24.183  11.591  1.00  0.00    -0.058 A 
ATOM     12  C6  UNK     1      37.163  25.539  11.665  1.00  0.00     0.010 A 
ATOM     13  C12 UNK     1      36.490  26.424  10.822  1.00  0.00     0.037 A 
ATOM     14  C15 UNK     1      35.545  25.941   9.915  1.00  0.00     0.065 A 
ATOM     15  C13 UNK     1      35.276  24.574   9.851  1.00  0.00     0.037 A 
ATOM     16  C7  UNK     1      35.950  23.690  10.693  1.00  0.00     0.010 A 
BRANCH  14  17
ATOM     17  O5  UNK     1      34.890  26.804   9.092  1.00  0.00    -0.361 OA
ATOM     18  H14 UNK     1      34.049  26.400   8.817  1.00  0.00     0.217 HD
ENDBRANCH  14  17
ENDBRANCH  10  11
ENDBRANCH   9  10
ENDBRANCH   7   9
ENDBRANCH   1   7
BRANCH   2  19
ATOM     19  O2  UNK     1      40.602  20.976   9.656  1.00  0.00    -0.360 OA
ATOM     20  H11 UNK     1      40.047  20.593   8.958  1.00  0.00     0.217 HD
ENDBRANCH   2  19
BRANCH   3  21
ATOM     21  O3  UNK     1      38.869  19.214  13.770  1.00  0.00    -0.360 OA
ATOM     22  H12 UNK     1      38.011  19.466  13.388  1.00  0.00     0.217 HD
ENDBRANCH   3  21
BRANCH   6  23
ATOM     23  O4  UNK     1      42.957  17.548  11.979  1.00  0.00    -0.361 OA
ATOM     24  H13 UNK     1      42.632  16.645  12.137  1.00  0.00     0.217 HD
ENDBRANCH   6  23
TORSDOF 8
ENDMDL
MODEL 6
REMARK VINA RESULT:      -5.7      3.979      6.996
REMARK  8 active torsions:
REMARK  status: ('A' for Active; 'I' for Inactive)
REMARK    1  A    between atoms: O2_2  and  C8_13 
REMARK    2  A    between atoms: O3_3  and  C9_14 
REMARK    3  A    between atoms: O4_4  and  C14_19 
REMARK    4  A    between atoms: O5_5  and  C15_20 
REMARK    5  A    between atoms: C1_6  and  C2_7 
REMARK    6  A    between atoms: C1_6  and  C3_8 
REMARK    7  A    between atoms: C2_7  and  C4_9 
REMARK    8  A    between atoms: C4_9  and  C5_10 
ROOT
ATOM      1  C5  UNK     1      41.950  25.554  12.152  1.00  0.00     0.076 A 
ATOM      2  C8  UNK     1      41.778  24.172  12.073  1.00  0.00     0.085 A 
ATOM      3  C9  UNK     1      43.029  26.160  11.509  1.00  0.00     0.085 A 
ATOM      4  C10 UNK     1      42.684  23.397  11.350  1.00  0.00     0.074 A 
ATOM      5  C11 UNK     1      43.935  25.385  10.786  1.00  0.00     0.074 A 
ATOM      6  C14 UNK     1      43.763  24.002  10.706  1.00  0.00     0.071 A 
ENDROOT
BRANCH   1   7
ATOM      7  C4  UNK     1      41.002  26.364  12.908  1.00  0.00     0.165 C 
ATOM      8  O1  UNK     1      41.049  26.401  14.153  1.00  0.00    -0.292 OA
BRANCH   7   9
ATOM      9  C2  UNK     1      39.930  27.180  12.165  1.00  0.00     0.088 C 
BRANCH   9  10
ATOM     10  C1  UNK     1      38.552  27.110  12.825  1.00  0.00     0.046 C 
BRANCH  10  11
ATOM     11  C3  UNK     1      37.593  26.266  12.025  1.00  0.00    -0.058 A 
ATOM     12  C6  UNK     1      36.734  26.877  11.125  1.00  0.00     0.010 A 
ATOM     13  C12 UNK     1      35.846  26.096  10.384  1.00  0.00     0.037 A 
ATOM     14  C15 UNK     1      35.828  24.711  10.554  1.00  0.00     0.065 A 
ATOM     15  C13 UNK     1      36.697  24.108  11.464  1.00  0.00     0.037 A 
ATOM     16  C7  UNK     1      37.584  24.890  12.203  1.00  0.00     0.010 A 
BRANCH  14  17
ATOM     17  O5  UNK     1      34.964  23.949   9.831  1.00  0.00    -0.361 OA
ATOM     18  H14 UNK     1      34.704  23.176  10.361  1.00  0.00     0.217 HD
ENDBRANCH  14  17
ENDBRANCH  10  11
ENDBRANCH   9  10
ENDBRANCH   7   9
ENDBRANCH   1   7
BRANCH   2  19
ATOM     19  O2  UNK     1      40.730  23.559  12.694  1.00  0.00    -0.360 OA
ATOM     20  H11 UNK     1      39.982  24.170  12.786  1.00  0.00     0.217 HD
ENDBRANCH   2  19
BRANCH   3  21
ATOM     21  O3  UNK     1      43.216  27.509  11.573  1.00  0.00    -0.360 OA
ATOM     22  H12 UNK     1      42.511  27.952  11.070  1.00  0.00     0.217 HD
ENDBRANCH   3  21
BRANCH   6  23
ATOM     23  O4  UNK     1      44.648  23.246  10.002  1.00  0.00    -0.361 OA
ATOM     24  H13 UNK     1      45.381  22.991  10.588  1.00  0.00     0.217 HD
ENDBRANCH   6  23
TORSDOF 8
ENDMDL
MODEL 7
REMARK VINA RESULT:      -5.7      3.982      6.864
REMARK  8 active torsions:
REMARK  status: ('A' for Active; 'I' for Inactive)
REMARK    1  A    between atoms: O2_2  and  C8_13 
REMARK    2  A    between atoms: O3_3  and  C9_14 
REMARK    3  A    between atoms: O4_4  and  C14_19 
REMARK    4  A    between atoms: O5_5  and  C15_20 
REMARK    5  A    between atoms: C1_6  and  C2_7 
REMARK    6  A    between atoms: C1_6  and  C3_8 
REMARK    7  A    between atoms: C2_7  and  C4_9 
REMARK    8  A    between atoms: C4_9  and  C5_10 
ROOT
ATOM      1  C5  UNK     1      41.961  25.564  12.162  1.00  0.00     0.076 A 
ATOM      2  C8  UNK     1      43.036  26.162  11.505  1.00  0.00     0.085 A 
ATOM      3  C9  UNK     1      41.782  24.182  12.091  1.00  0.00     0.085 A 
ATOM      4  C10 UNK     1      43.931  25.379  10.776  1.00  0.00     0.074 A 
ATOM      5  C11 UNK     1      42.677  23.399  11.364  1.00  0.00     0.074 A 
ATOM      6  C14 UNK     1      43.752  23.997  10.705  1.00  0.00     0.071 A 
ENDROOT
BRANCH   1   7
ATOM      7  C4  UNK     1      41.026  26.383  12.924  1.00  0.00     0.165 C 
ATOM      8  O1  UNK     1      41.102  26.446  14.166  1.00  0.00    -0.292 OA
BRANCH   7   9
ATOM      9  C2  UNK     1      39.932  27.177  12.191  1.00  0.00     0.088 C 
BRANCH   9  10
ATOM     10  C1  UNK     1      38.562  27.082  12.865  1.00  0.00     0.046 C 
BRANCH  10  11
ATOM     11  C3  UNK     1      37.596  26.259  12.052  1.00  0.00    -0.058 A 
ATOM     12  C6  UNK     1      37.558  24.884  12.226  1.00  0.00     0.010 A 
ATOM     13  C12 UNK     1      36.664  24.121  11.474  1.00  0.00     0.037 A 
ATOM     14  C15 UNK     1      35.819  24.743  10.554  1.00  0.00     0.065 A 
ATOM     15  C13 UNK     1      35.868  26.128  10.388  1.00  0.00     0.037 A 
ATOM     16  C7  UNK     1      36.761  26.889  11.141  1.00  0.00     0.010 A 
BRANCH  14  17
ATOM     17  O5  UNK     1      34.947  24.000   9.821  1.00  0.00    -0.361 OA
ATOM     18  H14 UNK     1      34.066  24.055  10.229  1.00  0.00     0.217 HD
ENDBRANCH  14  17
ENDBRANCH  10  11
ENDBRANCH   9  10
ENDBRANCH   7   9
ENDBRANCH   1   7
BRANCH   2  19
ATOM     19  O2  UNK     1      43.230  27.510  11.561  1.00  0.00    -0.360 OA
ATOM     20  H11 UNK     1      43.169  27.902  10.675  1.00  0.00     0.217 HD
ENDBRANCH   2  19
BRANCH   3  21
ATOM     21  O3  UNK     1      40.739  23.577  12.727  1.00  0.00    -0.360 OA
ATOM     22  H12 UNK     1      40.030  24.229  12.866  1.00  0.00     0.217 HD
ENDBRANCH   3  21
BRANCH   6  23
ATOM     23  O4  UNK     1      44.625  23.233   9.994  1.00  0.00    -0.361 OA
ATOM     24  H13 UNK     1      44.830  22.431  10.505  1.00  0.00     0.217 HD
ENDBRANCH   6  23
TORSDOF 8
ENDMDL
MODEL 8
REMARK VINA RESULT:      -5.7      3.981      6.876
REMARK  8 active torsions:
REMARK  status: ('A' for Active; 'I' for Inactive)
REMARK    1  A    between atoms: O2_2  and  C8_13 
REMARK    2  A    between atoms: O3_3  and  C9_14 
REMARK    3  A    between atoms: O4_4  and  C14_19 
REMARK    4  A    between atoms: O5_5  and  C15_20 
REMARK    5  A    between atoms: C1_6  and  C2_7 
REMARK    6  A    between atoms: C1_6  and  C3_8 
REMARK    7  A    between atoms: C2_7  and  C4_9 
REMARK    8  A    between atoms: C4_9  and  C5_10 
ROOT
ATOM      1  C5  UNK     1      41.950  25.557  12.139  1.00  0.00     0.076 A 
ATOM      2  C8  UNK     1      43.032  26.161  11.499  1.00  0.00     0.085 A 
ATOM      3  C9  UNK     1      41.770  24.177  12.050  1.00  0.00     0.085 A 
ATOM      4  C10 UNK     1      43.934  25.385  10.771  1.00  0.00     0.074 A 
ATOM      5  C11 UNK     1      42.671  23.401  11.323  1.00  0.00     0.074 A 
ATOM      6  C14 UNK     1      43.754  24.005  10.683  1.00  0.00     0.071 A 
ENDROOT
BRANCH   1   7
ATOM      7  C4  UNK     1      41.007  26.369  12.900  1.00  0.00     0.165 C 
ATOM      8  O1  UNK     1      41.064  26.409  14.144  1.00  0.00    -0.292 OA
BRANCH   7   9
ATOM      9  C2  UNK     1      39.930  27.183  12.163  1.00  0.00     0.088 C 
BRANCH   9  10
ATOM     10  C1  UNK     1      38.555  27.107  12.829  1.00  0.00     0.046 C 
BRANCH  10  11
ATOM     11  C3  UNK     1      37.595  26.263  12.030  1.00  0.00    -0.058 A 
ATOM     12  C6  UNK     1      36.730  26.876  11.137  1.00  0.00     0.010 A 
ATOM     13  C12 UNK     1      35.841  26.095  10.397  1.00  0.00     0.037 A 
ATOM     14  C15 UNK     1      35.828  24.709  10.561  1.00  0.00     0.065 A 
ATOM     15  C13 UNK     1      36.703  24.105  11.464  1.00  0.00     0.037 A 
ATOM     16  C7  UNK     1      37.592  24.887  12.203  1.00  0.00     0.010 A 
BRANCH  14  17
ATOM     17  O5  UNK     1      34.963  23.947   9.839  1.00  0.00    -0.361 OA
ATOM     18  H14 UNK     1      34.572  23.275  10.422  1.00  0.00     0.217 HD
ENDBRANCH  14  17
ENDBRANCH  10  11
ENDBRANCH   9  10
ENDBRANCH   7   9
ENDBRANCH   1   7
BRANCH   2  19
ATOM     19  O2  UNK     1      43.227  27.508  11.572  1.00  0.00    -0.360 OA
ATOM     20  H11 UNK     1      44.175  27.718  11.563  1.00  0.00     0.217 HD
ENDBRANCH   2  19
BRANCH   3  21
ATOM     21  O3  UNK     1      40.719  23.566  12.669  1.00  0.00    -0.360 OA
ATOM     22  H12 UNK     1      40.980  23.322  13.573  1.00  0.00     0.217 HD
ENDBRANCH   3  21
BRANCH   6  23
ATOM     23  O4  UNK     1      44.633  23.248   9.972  1.00  0.00    -0.361 OA
ATOM     24  H13 UNK     1      44.338  22.321   9.992  1.00  0.00     0.217 HD
ENDBRANCH   6  23
TORSDOF 8
ENDMDL
MODEL 9
REMARK VINA RESULT:      -5.7      2.068      3.883
REMARK  8 active torsions:
REMARK  status: ('A' for Active; 'I' for Inactive)
REMARK    1  A    between atoms: O2_2  and  C8_13 
REMARK    2  A    between atoms: O3_3  and  C9_14 
REMARK    3  A    between atoms: O4_4  and  C14_19 
REMARK    4  A    between atoms: O5_5  and  C15_20 
REMARK    5  A    between atoms: C1_6  and  C2_7 
REMARK    6  A    between atoms: C1_6  and  C3_8 
REMARK    7  A    between atoms: C2_7  and  C4_9 
REMARK    8  A    between atoms: C4_9  and  C5_10 
ROOT
ATOM      1  C5  UNK     1      39.524  21.273  11.483  1.00  0.00     0.076 A 
ATOM      2  C8  UNK     1      39.005  21.211  10.190  1.00  0.00     0.085 A 
ATOM      3  C9  UNK     1      38.892  22.053  12.451  1.00  0.00     0.085 A 
ATOM      4  C10 UNK     1      37.854  21.929   9.865  1.00  0.00     0.074 A 
ATOM      5  C11 UNK     1      37.741  22.770  12.128  1.00  0.00     0.074 A 
ATOM      6  C14 UNK     1      37.222  22.709  10.833  1.00  0.00     0.071 A 
ENDROOT
BRANCH   1   7
ATOM      7  C4  UNK     1      40.727  20.521  11.822  1.00  0.00     0.165 C 
ATOM      8  O1  UNK     1      40.682  19.285  11.973  1.00  0.00    -0.292 OA
BRANCH   7   9
ATOM      9  C2  UNK     1      42.066  21.258  11.997  1.00  0.00     0.088 C 
BRANCH   9  10
ATOM     10  C1  UNK     1      42.522  21.992  10.734  1.00  0.00     0.046 C 
BRANCH  10  11
ATOM     11  C3  UNK     1      42.694  23.469  10.979  1.00  0.00    -0.058 A 
ATOM     12  C6  UNK     1      41.999  24.074  12.014  1.00  0.00     0.010 A 
ATOM     13  C12 UNK     1      42.159  25.441  12.241  1.00  0.00     0.037 A 
ATOM     14  C15 UNK     1      43.013  26.188  11.427  1.00  0.00     0.065 A 
ATOM     15  C13 UNK     1      43.706  25.567  10.388  1.00  0.00     0.037 A 
ATOM     16  C7  UNK     1      43.546  24.199  10.163  1.00  0.00     0.010 A 
BRANCH  14  17
ATOM     17  O5  UNK     1      43.170  27.521  11.649  1.00  0.00    -0.361 OA
ATOM     18  H14 UNK     1      43.873  27.857  11.068  1.00  0.00     0.217 HD
ENDBRANCH  14  17
ENDBRANCH  10  11
ENDBRANCH   9  10
ENDBRANCH   7   9
ENDBRANCH   1   7
BRANCH   2  19
ATOM     19  O2  UNK     1      39.607  20.455   9.228  1.00  0.00    -0.360 OA
ATOM     20  H11 UNK     1      40.380  20.915   8.864  1.00  0.00     0.217 HD
ENDBRANCH   2  19
BRANCH   3  21
ATOM     21  O3  UNK     1      39.383  22.126  13.722  1.00  0.00    -0.360 OA
ATOM     22  H12 UNK     1      38.953  22.865  14.186  1.00  0.00     0.217 HD
ENDBRANCH   3  21
BRANCH   6  23
ATOM     23  O4  UNK     1      36.100  23.410  10.517  1.00  0.00    -0.361 OA
ATOM     24  H13 UNK     1      35.562  23.524  11.320  1.00  0.00     0.217 HD
ENDBRANCH   6  23
TORSDOF 8
ENDMDL
MODEL 10
REMARK VINA RESULT:      -5.7      2.073      4.291
REMARK  8 active torsions:
REMARK  status: ('A' for Active; 'I' for Inactive)
REMARK    1  A    between atoms: O2_2  and  C8_13 
REMARK    2  A    between atoms: O3_3  and  C9_14 
REMARK    3  A    between atoms: O4_4  and  C14_19 
REMARK    4  A    between atoms: O5_5  and  C15_20 
REMARK    5  A    between atoms: C1_6  and  C2_7 
REMARK    6  A    between atoms: C1_6  and  C3_8 
REMARK    7  A    between atoms: C2_7  and  C4_9 
REMARK    8  A    between atoms: C4_9  and  C5_10 
ROOT
ATOM      1  C5  UNK     1      39.526  21.296  11.495  1.00  0.00     0.076 A 
ATOM      2  C8  UNK     1      38.899  22.067  12.473  1.00  0.00     0.085 A 
ATOM      3  C9  UNK     1      38.995  21.238  10.206  1.00  0.00     0.085 A 
ATOM      4  C10 UNK     1      37.741  22.779  12.164  1.00  0.00     0.074 A 
ATOM      5  C11 UNK     1      37.837  21.950   9.896  1.00  0.00     0.074 A 
ATOM      6  C14 UNK     1      37.209  22.722  10.876  1.00  0.00     0.071 A 
ENDROOT
BRANCH   1   7
ATOM      7  C4  UNK     1      40.738  20.551  11.819  1.00  0.00     0.165 C 
ATOM      8  O1  UNK     1      40.704  19.314  11.962  1.00  0.00    -0.292 OA
BRANCH   7   9
ATOM      9  C2  UNK     1      42.072  21.298  11.990  1.00  0.00     0.088 C 
BRANCH   9  10
ATOM     10  C1  UNK     1      42.513  22.043  10.729  1.00  0.00     0.046 C 
BRANCH  10  11
ATOM     11  C3  UNK     1      42.689  23.517  10.985  1.00  0.00    -0.058 A 
ATOM     12  C6  UNK     1      43.542  24.253  10.176  1.00  0.00     0.010 A 
ATOM     13  C12 UNK     1      43.704  25.618  10.413  1.00  0.00     0.037 A 
ATOM     14  C15 UNK     1      43.014  26.231  11.459  1.00  0.00     0.065 A 
ATOM     15  C13 UNK     1      42.159  25.479  12.266  1.00  0.00     0.037 A 
ATOM     16  C7  UNK     1      41.996  24.115  12.028  1.00  0.00     0.010 A 
BRANCH  14  17
ATOM     17  O5  UNK     1      43.171  27.563  11.690  1.00  0.00    -0.361 OA
ATOM     18  H14 UNK     1      43.614  27.965  10.924  1.00  0.00     0.217 HD
ENDBRANCH  14  17
ENDBRANCH  10  11
ENDBRANCH   9  10
ENDBRANCH   7   9
ENDBRANCH   1   7
BRANCH   2  19
ATOM     19  O2  UNK     1      39.402  22.138  13.739  1.00  0.00    -0.360 OA
ATOM     20  H11 UNK     1      40.348  22.353  13.720  1.00  0.00     0.217 HD
ENDBRANCH   2  19
BRANCH   3  21
ATOM     21  O3  UNK     1      39.593  20.491   9.235  1.00  0.00    -0.360 OA
ATOM     22  H12 UNK     1      39.038  19.714   9.044  1.00  0.00     0.217 HD
ENDBRANCH   3  21
BRANCH   6  23
ATOM     23  O4  UNK     1      36.079  23.416  10.574  1.00  0.00    -0.361 OA
ATOM     24  H13 UNK     1      36.240  24.363  10.729  1.00  0.00     0.217 HD
ENDBRANCH   6  23
TORSDOF 8
ENDMDL
MODEL 11
REMARK VINA RESULT:      -5.7      4.073      6.899
REMARK  8 active torsions:
REMARK  status: ('A' for Active; 'I' for Inactive)
REMARK    1  A    between atoms: O2_2  and  C8_13 
REMARK    2  A    between atoms: O3_3  and  C9_14 
REMARK    3  A    between atoms: O4_4  and  C14_19 
REMARK    4  A    between atoms: O5_5  and  C15_20 
REMARK    5  A    between atoms: C1_6  and  C2_7 
REMARK    6  A    between atoms: C1_6  and  C3_8 
REMARK    7  A    between atoms: C2_7  and  C4_9 
REMARK    8  A    between atoms: C4_9  and  C5_10 
ROOT
ATOM      1  C5  UNK     1      41.492  24.500  12.279  1.00  0.00     0.076 A 
ATOM      2  C8  UNK     1      42.001  25.796  12.363  1.00  0.00     0.085 A 
ATOM      3  C9  UNK     1      41.962  23.629  11.296  1.00  0.00     0.085 A 
ATOM      4  C10 UNK     1      42.978  26.221  11.464  1.00  0.00     0.074 A 
ATOM      5  C11 UNK     1      42.939  24.054  10.396  1.00  0.00     0.074 A 
ATOM      6  C14 UNK     1      43.448  25.351  10.481  1.00  0.00     0.071 A 
ENDROOT
BRANCH   1   7
ATOM      7  C4  UNK     1      40.470  24.056  13.220  1.00  0.00     0.165 C 
ATOM      8  O1  UNK     1      40.737  23.209  14.095  1.00  0.00    -0.292 OA
BRANCH   7   9
ATOM      9  C2  UNK     1      39.048  24.634  13.134  1.00  0.00     0.088 C 
BRANCH   9  10
ATOM     10  C1  UNK     1      38.065  23.715  12.405  1.00  0.00     0.046 C 
BRANCH  10  11
ATOM     11  C3  UNK     1      37.101  24.496  11.550  1.00  0.00    -0.058 A 
ATOM     12  C6  UNK     1      37.189  25.879  11.513  1.00  0.00     0.010 A 
ATOM     13  C12 UNK     1      36.296  26.602  10.721  1.00  0.00     0.037 A 
ATOM     14  C15 UNK     1      35.323  25.933   9.977  1.00  0.00     0.065 A 
ATOM     15  C13 UNK     1      35.245  24.541  10.024  1.00  0.00     0.037 A 
ATOM     16  C7  UNK     1      36.138  23.818  10.815  1.00  0.00     0.010 A 
BRANCH  14  17
ATOM     17  O5  UNK     1      34.454  26.638   9.204  1.00  0.00    -0.361 OA
ATOM     18  H14 UNK     1      33.641  26.117   9.089  1.00  0.00     0.217 HD
ENDBRANCH  14  17
ENDBRANCH  10  11
ENDBRANCH   9  10
ENDBRANCH   7   9
ENDBRANCH   1   7
BRANCH   2  19
ATOM     19  O2  UNK     1      41.557  26.663  13.317  1.00  0.00    -0.360 OA
ATOM     20  H11 UNK     1      41.972  27.533  13.209  1.00  0.00     0.217 HD
ENDBRANCH   2  19
BRANCH   3  21
ATOM     21  O3  UNK     1      41.478  22.358  11.196  1.00  0.00    -0.360 OA
ATOM     22  H12 UNK     1      42.211  21.729  11.315  1.00  0.00     0.217 HD
ENDBRANCH   3  21
BRANCH   6  23
ATOM     23  O4  UNK     1      44.401  25.766   9.603  1.00  0.00    -0.361 OA
ATOM     24  H13 UNK     1      44.018  26.442   9.018  1.00  0.00     0.217 HD
ENDBRANCH   6  23
TORSDOF 8
ENDMDL
MODEL 12
REMARK VINA RESULT:      -5.7      4.100      6.832
REMARK  8 active torsions:
REMARK  status: ('A' for Active; 'I' for Inactive)
REMARK    1  A    between atoms: O2_2  and  C8_13 
REMARK    2  A    between atoms: O3_3  and  C9_14 
REMARK    3  A    between atoms: O4_4  and  C14_19 
REMARK    4  A    between atoms: O5_5  and  C15_20 
REMARK    5  A    between atoms: C1_6  and  C2_7 
REMARK    6  A    between atoms: C1_6  and  C3_8 
REMARK    7  A    between atoms: C2_7  and  C4_9 
REMARK    8  A    between atoms: C4_9  and  C5_10 
ROOT
ATOM      1  C5  UNK     1      41.457  24.539  12.327  1.00  0.00     0.076 A 
ATOM      2  C8  UNK     1      41.929  23.649  11.362  1.00  0.00     0.085 A 
ATOM      3  C9  UNK     1      41.981  25.830  12.400  1.00  0.00     0.085 A 
ATOM      4  C10 UNK     1      42.925  24.050  10.471  1.00  0.00     0.074 A 
ATOM      5  C11 UNK     1      42.976  26.231  11.509  1.00  0.00     0.074 A 
ATOM      6  C14 UNK     1      43.449  25.340  10.544  1.00  0.00     0.071 A 
ENDROOT
BRANCH   1   7
ATOM      7  C4  UNK     1      40.416  24.120  13.258  1.00  0.00     0.165 C 
ATOM      8  O1  UNK     1      40.657  23.274  14.141  1.00  0.00    -0.292 OA
BRANCH   7   9
ATOM      9  C2  UNK     1      39.005  24.723  13.150  1.00  0.00     0.088 C 
BRANCH   9  10
ATOM     10  C1  UNK     1      38.005  23.800  12.451  1.00  0.00     0.046 C 
BRANCH  10  11
ATOM     11  C3  UNK     1      37.067  24.569  11.557  1.00  0.00    -0.058 A 
ATOM     12  C6  UNK     1      37.169  25.950  11.490  1.00  0.00     0.010 A 
ATOM     13  C12 UNK     1      36.300  26.663  10.662  1.00  0.00     0.037 A 
ATOM     14  C15 UNK     1      35.339  25.984   9.911  1.00  0.00     0.065 A 
ATOM     15  C13 UNK     1      35.247  24.594   9.988  1.00  0.00     0.037 A 
ATOM     16  C7  UNK     1      36.116  23.883  10.816  1.00  0.00     0.010 A 
BRANCH  14  17
ATOM     17  O5  UNK     1      34.493  26.679   9.103  1.00  0.00    -0.361 OA
ATOM     18  H14 UNK     1      33.577  26.451   9.336  1.00  0.00     0.217 HD
ENDBRANCH  14  17
ENDBRANCH  10  11
ENDBRANCH   9  10
ENDBRANCH   7   9
ENDBRANCH   1   7
BRANCH   2  19
ATOM     19  O2  UNK     1      41.431  22.384  11.273  1.00  0.00    -0.360 OA
ATOM     20  H11 UNK     1      41.209  22.167  10.353  1.00  0.00     0.217 HD
ENDBRANCH   2  19
BRANCH   3  21
ATOM     21  O3  UNK     1      41.534  26.716  13.335  1.00  0.00    -0.360 OA
ATOM     22  H12 UNK     1      40.813  27.245  12.952  1.00  0.00     0.217 HD
ENDBRANCH   3  21
BRANCH   6  23
ATOM     23  O4  UNK     1      44.420  25.731   9.676  1.00  0.00    -0.361 OA
ATOM     24  H13 UNK     1      45.032  24.988   9.532  1.00  0.00     0.217 HD
ENDBRANCH   6  23
TORSDOF 8
ENDMDL
MODEL 13
REMARK VINA RESULT:      -5.6      4.371      6.754
REMARK  8 active torsions:
REMARK  status: ('A' for Active; 'I' for Inactive)
REMARK    1  A    between atoms: O2_2  and  C8_13 
REMARK    2  A    between atoms: O3_3  and  C9_14 
REMARK    3  A    between atoms: O4_4  and  C14_19 
REMARK    4  A    between atoms: O5_5  and  C15_20 
REMARK    5  A    between atoms: C1_6  and  C2_7 
REMARK    6  A    between atoms: C1_6  and  C3_8 
REMARK    7  A    between atoms: C2_7  and  C4_9 
REMARK    8  A    between atoms: C4_9  and  C5_10 
ROOT
ATOM      1  C5  UNK     1      37.282  25.016  11.874  1.00  0.00     0.076 A 
ATOM      2  C8  UNK     1      37.495  26.342  11.496  1.00  0.00     0.085 A 
ATOM      3  C9  UNK     1      36.243  24.285  11.298  1.00  0.00     0.085 A 
ATOM      4  C10 UNK     1      36.669  26.936  10.542  1.00  0.00     0.074 A 
ATOM      5  C11 UNK     1      35.417  24.879  10.344  1.00  0.00     0.074 A 
ATOM      6  C14 UNK     1      35.630  26.205   9.966  1.00  0.00     0.071 A 
ENDROOT
BRANCH   1   7
ATOM      7  C4  UNK     1      38.147  24.396  12.871  1.00  0.00     0.165 C 
ATOM      8  O1  UNK     1      38.004  24.652  14.083  1.00  0.00    -0.292 OA
BRANCH   7   9
ATOM      9  C2  UNK     1      39.247  23.418  12.427  1.00  0.00     0.088 C 
BRANCH   9  10
ATOM     10  C1  UNK     1      40.590  23.664  13.119  1.00  0.00     0.046 C 
BRANCH  10  11
ATOM     11  C3  UNK     1      41.607  24.246  12.171  1.00  0.00    -0.058 A 
ATOM     12  C6  UNK     1      42.005  25.564  12.323  1.00  0.00     0.010 A 
ATOM     13  C12 UNK     1      42.947  26.103  11.446  1.00  0.00     0.037 A 
ATOM     14  C15 UNK     1      43.478  25.315  10.424  1.00  0.00     0.065 A 
ATOM     15  C13 UNK     1      43.068  23.989  10.281  1.00  0.00     0.037 A 
ATOM     16  C7  UNK     1      42.127  23.451  11.159  1.00  0.00     0.010 A 
BRANCH  14  17
ATOM     17  O5  UNK     1      44.397  25.839   9.569  1.00  0.00    -0.361 OA
ATOM     18  H14 UNK     1      43.939  26.390   8.912  1.00  0.00     0.217 HD
ENDBRANCH  14  17
ENDBRANCH  10  11
ENDBRANCH   9  10
ENDBRANCH   7   9
ENDBRANCH   1   7
BRANCH   2  19
ATOM     19  O2  UNK     1      38.504  27.075  12.046  1.00  0.00    -0.360 OA
ATOM     20  H11 UNK     1      38.327  27.253  12.983  1.00  0.00     0.217 HD
ENDBRANCH   2  19
BRANCH   3  21
ATOM     21  O3  UNK     1      36.019  22.988  11.653  1.00  0.00    -0.360 OA
ATOM     22  H12 UNK     1      36.774  22.666  12.175  1.00  0.00     0.217 HD
ENDBRANCH   3  21
BRANCH   6  23
ATOM     23  O4  UNK     1      34.823  26.784   9.036  1.00  0.00    -0.361 OA
ATOM     24  H13 UNK     1      35.262  26.742   8.168  1.00  0.00     0.217 HD
ENDBRANCH   6  23
TORSDOF 8
ENDMDL
MODEL 14
REMARK VINA RESULT:      -5.5      4.381      6.869
REMARK  8 active torsions:
REMARK  status: ('A' for Active; 'I' for Inactive)
REMARK    1  A    between atoms: O2_2  and  C8_13 
REMARK    2  A    between atoms: O3_3  and  C9_14 
REMARK    3  A    between atoms: O4_4  and  C14_19 
REMARK    4  A    between atoms: O5_5  and  C15_20 
REMARK    5  A    between atoms: C1_6  and  C2_7 
REMARK    6  A    between atoms: C1_6  and  C3_8 
REMARK    7  A    between atoms: C2_7  and  C4_9 
REMARK    8  A    between atoms: C4_9  and  C5_10 
ROOT
ATOM      1  C5  UNK     1      37.266  25.031  11.901  1.00  0.00     0.076 A 
ATOM      2  C8  UNK     1      36.234  24.293  11.323  1.00  0.00     0.085 A 
ATOM      3  C9  UNK     1      37.478  26.355  11.515  1.00  0.00     0.085 A 
ATOM      4  C10 UNK     1      35.413  24.878  10.359  1.00  0.00     0.074 A 
ATOM      5  C11 UNK     1      36.658  26.940  10.552  1.00  0.00     0.074 A 
ATOM      6  C14 UNK     1      35.625  26.202   9.973  1.00  0.00     0.071 A 
ENDROOT
BRANCH   1   7
ATOM      7  C4  UNK     1      38.123  24.419  12.910  1.00  0.00     0.165 C 
ATOM      8  O1  UNK     1      37.959  24.669  14.120  1.00  0.00    -0.292 OA
BRANCH   7   9
ATOM      9  C2  UNK     1      39.243  23.456  12.480  1.00  0.00     0.088 C 
BRANCH   9  10
ATOM     10  C1  UNK     1      40.580  23.739  13.167  1.00  0.00     0.046 C 
BRANCH  10  11
ATOM     11  C3  UNK     1      41.597  24.293  12.202  1.00  0.00    -0.058 A 
ATOM     12  C6  UNK     1      42.116  23.472  11.213  1.00  0.00     0.010 A 
ATOM     13  C12 UNK     1      43.056  23.986  10.319  1.00  0.00     0.037 A 
ATOM     14  C15 UNK     1      43.469  25.314  10.427  1.00  0.00     0.065 A 
ATOM     15  C13 UNK     1      42.939  26.130  11.428  1.00  0.00     0.037 A 
ATOM     16  C7  UNK     1      41.998  25.616  12.320  1.00  0.00     0.010 A 
BRANCH  14  17
ATOM     17  O5  UNK     1      44.385  25.815   9.555  1.00  0.00    -0.361 OA
ATOM     18  H14 UNK     1      44.672  25.105   8.957  1.00  0.00     0.217 HD
ENDBRANCH  14  17
ENDBRANCH  10  11
ENDBRANCH   9  10
ENDBRANCH   7   9
ENDBRANCH   1   7
BRANCH   2  19
ATOM     19  O2  UNK     1      36.009  22.998  11.685  1.00  0.00    -0.360 OA
ATOM     20  H11 UNK     1      36.627  22.725  12.382  1.00  0.00     0.217 HD
ENDBRANCH   2  19
BRANCH   3  21
ATOM     21  O3  UNK     1      38.481  27.094  12.069  1.00  0.00    -0.360 OA
ATOM     22  H12 UNK     1      39.336  26.687  11.846  1.00  0.00     0.217 HD
ENDBRANCH   3  21
BRANCH   6  23
ATOM     23  O4  UNK     1      34.825  26.773   9.031  1.00  0.00    -0.361 OA
ATOM     24  H13 UNK     1      34.156  26.125   8.751  1.00  0.00     0.217 HD
ENDBRANCH   6  23
TORSDOF 8
ENDMDL
MODEL 15
REMARK VINA RESULT:      -5.5      1.699      7.415
REMARK  8 active torsions:
REMARK  status: ('A' for Active; 'I' for Inactive)
REMARK    1  A    between atoms: O2_2  and  C8_13 
REMARK    2  A    between atoms: O3_3  and  C9_14 
REMARK    3  A    between atoms: O4_4  and  C14_19 
REMARK    4  A    between atoms: O5_5  and  C15_20 
REMARK    5  A    between atoms: C1_6  and  C2_7 
REMARK    6  A    between atoms: C1_6  and  C3_8 
REMARK    7  A    between atoms: C2_7  and  C4_9 
REMARK    8  A    between atoms: C4_9  and  C5_10 
ROOT
ATOM      1  C5  UNK     1      42.262  23.798  11.322  1.00  0.00     0.076 A 
ATOM      2  C8  UNK     1      41.461  24.557  12.176  1.00  0.00     0.085 A 
ATOM      3  C9  UNK     1      43.398  24.365  10.745  1.00  0.00     0.085 A 
ATOM      4  C10 UNK     1      41.796  25.882  12.452  1.00  0.00     0.074 A 
ATOM      5  C11 UNK     1      43.734  25.690  11.021  1.00  0.00     0.074 A 
ATOM      6  C14 UNK     1      42.932  26.449  11.874  1.00  0.00     0.071 A 
ENDROOT
BRANCH   1   7
ATOM      7  C4  UNK     1      41.911  22.412  11.035  1.00  0.00     0.165 C 
ATOM      8  O1  UNK     1      40.908  22.140  10.347  1.00  0.00    -0.292 OA
BRANCH   7   9
ATOM      9  C2  UNK     1      42.783  21.272  11.587  1.00  0.00     0.088 C 
BRANCH   9  10
ATOM     10  C1  UNK     1      42.704  19.992  10.753  1.00  0.00     0.046 C 
BRANCH  10  11
ATOM     11  C3  UNK     1      42.239  18.818  11.576  1.00  0.00    -0.058 A 
ATOM     12  C6  UNK     1      41.010  18.876  12.214  1.00  0.00     0.010 A 
ATOM     13  C12 UNK     1      40.580  17.789  12.975  1.00  0.00     0.037 A 
ATOM     14  C15 UNK     1      41.386  16.656  13.091  1.00  0.00     0.065 A 
ATOM     15  C13 UNK     1      42.622  16.610  12.444  1.00  0.00     0.037 A 
ATOM     16  C7  UNK     1      43.051  17.697  11.683  1.00  0.00     0.010 A 
BRANCH  14  17
ATOM     17  O5  UNK     1      40.966  15.596  13.833  1.00  0.00    -0.361 OA
ATOM     18  H14 UNK     1      41.057  14.785  13.304  1.00  0.00     0.217 HD
ENDBRANCH  14  17
ENDBRANCH  10  11
ENDBRANCH   9  10
ENDBRANCH   7   9
ENDBRANCH   1   7
BRANCH   2  19
ATOM     19  O2  UNK     1      40.346  24.023  12.751  1.00  0.00    -0.360 OA
ATOM     20  H11 UNK     1      40.465  23.073  12.912  1.00  0.00     0.217 HD
ENDBRANCH   2  19
BRANCH   3  21
ATOM     21  O3  UNK     1      44.195  23.640   9.909  1.00  0.00    -0.360 OA
ATOM     22  H12 UNK     1      44.424  24.186   9.137  1.00  0.00     0.217 HD
ENDBRANCH   3  21
BRANCH   6  23
ATOM     23  O4  UNK     1      43.259  27.742  12.143  1.00  0.00    -0.361 OA
ATOM     24  H13 UNK     1      42.445  28.243  12.322  1.00  0.00     0.217 HD
ENDBRANCH   6  23
TORSDOF 8
ENDMDL
MODEL 16
REMARK VINA RESULT:      -5.5      1.689      7.212
REMARK  8 active torsions:
REMARK  status: ('A' for Active; 'I' for Inactive)
REMARK    1  A    between atoms: O2_2  and  C8_13 
REMARK    2  A    between atoms: O3_3  and  C9_14 
REMARK    3  A    between atoms: O4_4  and  C14_19 
REMARK    4  A    between atoms: O5_5  and  C15_20 
REMARK    5  A    between atoms: C1_6  and  C2_7 
REMARK    6  A    between atoms: C1_6  and  C3_8 
REMARK    7  A    between atoms: C2_7  and  C4_9 
REMARK    8  A    between atoms: C4_9  and  C5_10 
ROOT
ATOM      1  C5  UNK     1      42.264  23.815  11.299  1.00  0.00     0.076 A 
ATOM      2  C8  UNK     1      43.391  24.394  10.716  1.00  0.00     0.085 A 
ATOM      3  C9  UNK     1      41.473  24.558  12.175  1.00  0.00     0.085 A 
ATOM      4  C10 UNK     1      43.728  25.715  11.010  1.00  0.00     0.074 A 
ATOM      5  C11 UNK     1      41.808  25.879  12.469  1.00  0.00     0.074 A 
ATOM      6  C14 UNK     1      42.937  26.459  11.886  1.00  0.00     0.071 A 
ENDROOT
BRANCH   1   7
ATOM      7  C4  UNK     1      41.913  22.434  10.991  1.00  0.00     0.165 C 
ATOM      8  O1  UNK     1      40.891  22.171  10.327  1.00  0.00    -0.292 OA
BRANCH   7   9
ATOM      9  C2  UNK     1      42.808  21.287  11.491  1.00  0.00     0.088 C 
BRANCH   9  10
ATOM     10  C1  UNK     1      42.625  19.989  10.702  1.00  0.00     0.046 C 
BRANCH  10  11
ATOM     11  C3  UNK     1      42.210  18.849  11.595  1.00  0.00    -0.058 A 
ATOM     12  C6  UNK     1      43.030  17.736  11.706  1.00  0.00     0.010 A 
ATOM     13  C12 UNK     1      42.646  16.680  12.533  1.00  0.00     0.037 A 
ATOM     14  C15 UNK     1      41.443  16.749  13.238  1.00  0.00     0.065 A 
ATOM     15  C13 UNK     1      40.627  17.874  13.117  1.00  0.00     0.037 A 
ATOM     16  C7  UNK     1      41.012  18.929  12.291  1.00  0.00     0.010 A 
BRANCH  14  17
ATOM     17  O5  UNK     1      41.069  15.720  14.046  1.00  0.00    -0.361 OA
ATOM     18  H14 UNK     1      41.806  15.502  14.641  1.00  0.00     0.217 HD
ENDBRANCH  14  17
ENDBRANCH  10  11
ENDBRANCH   9  10
ENDBRANCH   7   9
ENDBRANCH   1   7
BRANCH   2  19
ATOM     19  O2  UNK     1      44.179  23.687   9.857  1.00  0.00    -0.360 OA
ATOM     20  H11 UNK     1      43.636  23.206   9.212  1.00  0.00     0.217 HD
ENDBRANCH   2  19
BRANCH   3  21
ATOM     21  O3  UNK     1      40.366  24.012  12.755  1.00  0.00    -0.360 OA
ATOM     22  H12 UNK     1      40.624  23.206  13.235  1.00  0.00     0.217 HD
ENDBRANCH   3  21
BRANCH   6  23
ATOM     23  O4  UNK     1      43.265  27.747  12.174  1.00  0.00    -0.361 OA
ATOM     24  H13 UNK     1      43.599  27.792  13.086  1.00  0.00     0.217 HD
ENDBRANCH   6  23
TORSDOF 8
ENDMDL
MODEL 17
REMARK VINA RESULT:      -5.5      3.508      5.209
REMARK  8 active torsions:
REMARK  status: ('A' for Active; 'I' for Inactive)
REMARK    1  A    between atoms: O2_2  and  C8_13 
REMARK    2  A    between atoms: O3_3  and  C9_14 
REMARK    3  A    between atoms: O4_4  and  C14_19 
REMARK    4  A    between atoms: O5_5  and  C15_20 
REMARK    5  A    between atoms: C1_6  and  C2_7 
REMARK    6  A    between atoms: C1_6  and  C3_8 
REMARK    7  A    between atoms: C2_7  and  C4_9 
REMARK    8  A    between atoms: C4_9  and  C5_10 
ROOT
ATOM      1  C5  UNK     1      41.818  21.082  10.976  1.00  0.00     0.076 A 
ATOM      2  C8  UNK     1      42.260  22.393  11.149  1.00  0.00     0.085 A 
ATOM      3  C9  UNK     1      42.718  20.089  10.589  1.00  0.00     0.085 A 
ATOM      4  C10 UNK     1      43.600  22.712  10.934  1.00  0.00     0.074 A 
ATOM      5  C11 UNK     1      44.058  20.406  10.375  1.00  0.00     0.074 A 
ATOM      6  C14 UNK     1      44.500  21.719  10.547  1.00  0.00     0.071 A 
ENDROOT
BRANCH   1   7
ATOM      7  C4  UNK     1      40.416  20.750  11.201  1.00  0.00     0.165 C 
ATOM      8  O1  UNK     1      40.071  20.097  12.205  1.00  0.00    -0.292 OA
BRANCH   7   9
ATOM      9  C2  UNK     1      39.350  21.206  10.189  1.00  0.00     0.088 C 
BRANCH   9  10
ATOM     10  C1  UNK     1      37.927  21.161  10.750  1.00  0.00     0.046 C 
BRANCH  10  11
ATOM     11  C3  UNK     1      37.337  22.542  10.882  1.00  0.00    -0.058 A 
ATOM     12  C6  UNK     1      37.832  23.405  11.848  1.00  0.00     0.010 A 
ATOM     13  C12 UNK     1      37.286  24.683  11.971  1.00  0.00     0.037 A 
ATOM     14  C15 UNK     1      36.250  25.083  11.125  1.00  0.00     0.065 A 
ATOM     15  C13 UNK     1      35.762  24.205  10.157  1.00  0.00     0.037 A 
ATOM     16  C7  UNK     1      36.308  22.927  10.035  1.00  0.00     0.010 A 
BRANCH  14  17
ATOM     17  O5  UNK     1      35.719  26.330  11.243  1.00  0.00    -0.361 OA
ATOM     18  H14 UNK     1      35.314  26.418  12.123  1.00  0.00     0.217 HD
ENDBRANCH  14  17
ENDBRANCH  10  11
ENDBRANCH   9  10
ENDBRANCH   7   9
ENDBRANCH   1   7
BRANCH   2  19
ATOM     19  O2  UNK     1      41.398  23.380  11.526  1.00  0.00    -0.360 OA
ATOM     20  H11 UNK     1      40.738  23.542  10.834  1.00  0.00     0.217 HD
ENDBRANCH   2  19
BRANCH   3  21
ATOM     21  O3  UNK     1      42.307  18.800  10.416  1.00  0.00    -0.360 OA
ATOM     22  H12 UNK     1      41.492  18.795   9.884  1.00  0.00     0.217 HD
ENDBRANCH   3  21
BRANCH   6  23
ATOM     23  O4  UNK     1      45.808  22.029  10.338  1.00  0.00    -0.361 OA
ATOM     24  H13 UNK     1      45.991  22.903  10.724  1.00  0.00     0.217 HD
ENDBRANCH   6  23
TORSDOF 8
ENDMDL
MODEL 18
REMARK VINA RESULT:      -5.5      3.512      5.101
REMARK  8 active torsions:
REMARK  status: ('A' for Active; 'I' for Inactive)
REMARK    1  A    between atoms: O2_2  and  C8_13 
REMARK    2  A    between atoms: O3_3  and  C9_14 
REMARK    3  A    between atoms: O4_4  and  C14_19 
REMARK    4  A    between atoms: O5_5  and  C15_20 
REMARK    5  A    between atoms: C1_6  and  C2_7 
REMARK    6  A    between atoms: C1_6  and  C3_8 
REMARK    7  A    between atoms: C2_7  and  C4_9 
REMARK    8  A    between atoms: C4_9  and  C5_10 
ROOT
ATOM      1  C5  UNK     1      41.829  21.081  10.966  1.00  0.00     0.076 A 
ATOM      2  C8  UNK     1      42.732  20.089  10.584  1.00  0.00     0.085 A 
ATOM      3  C9  UNK     1      42.268  22.394  11.139  1.00  0.00     0.085 A 
ATOM      4  C10 UNK     1      44.073  20.410  10.375  1.00  0.00     0.074 A 
ATOM      5  C11 UNK     1      43.608  22.715  10.930  1.00  0.00     0.074 A 
ATOM      6  C14 UNK     1      44.512  21.722  10.548  1.00  0.00     0.071 A 
ENDROOT
BRANCH   1   7
ATOM      7  C4  UNK     1      40.426  20.745  11.184  1.00  0.00     0.165 C 
ATOM      8  O1  UNK     1      40.082  20.069  12.173  1.00  0.00    -0.292 OA
BRANCH   7   9
ATOM      9  C2  UNK     1      39.361  21.225  10.185  1.00  0.00     0.088 C 
BRANCH   9  10
ATOM     10  C1  UNK     1      37.938  21.173  10.746  1.00  0.00     0.046 C 
BRANCH  10  11
ATOM     11  C3  UNK     1      37.341  22.550  10.879  1.00  0.00    -0.058 A 
ATOM     12  C6  UNK     1      36.306  22.928  10.037  1.00  0.00     0.010 A 
ATOM     13  C12 UNK     1      35.753  24.203  10.161  1.00  0.00     0.037 A 
ATOM     14  C15 UNK     1      36.242  25.086  11.125  1.00  0.00     0.065 A 
ATOM     15  C13 UNK     1      37.284  24.692  11.966  1.00  0.00     0.037 A 
ATOM     16  C7  UNK     1      37.836  23.418  11.842  1.00  0.00     0.010 A 
BRANCH  14  17
ATOM     17  O5  UNK     1      35.702  26.328  11.246  1.00  0.00    -0.361 OA
ATOM     18  H14 UNK     1      36.413  26.988  11.194  1.00  0.00     0.217 HD
ENDBRANCH  14  17
ENDBRANCH  10  11
ENDBRANCH   9  10
ENDBRANCH   7   9
ENDBRANCH   1   7
BRANCH   2  19
ATOM     19  O2  UNK     1      42.325  18.800  10.409  1.00  0.00    -0.360 OA
ATOM     20  H11 UNK     1      41.446  18.663  10.797  1.00  0.00     0.217 HD
ENDBRANCH   2  19
BRANCH   3  21
ATOM     21  O3  UNK     1      41.401  23.379  11.512  1.00  0.00    -0.360 OA
ATOM     22  H12 UNK     1      40.757  23.014  12.143  1.00  0.00     0.217 HD
ENDBRANCH   3  21
BRANCH   6  23
ATOM     23  O4  UNK     1      45.820  22.036  10.345  1.00  0.00    -0.361 OA
ATOM     24  H13 UNK     1      46.200  21.406   9.708  1.00  0.00     0.217 HD
ENDBRANCH   6  23
TORSDOF 8
ENDMDL
MODEL 19
REMARK VINA RESULT:      -5.4      1.650      2.720
REMARK  8 active torsions:
REMARK  status: ('A' for Active; 'I' for Inactive)
REMARK    1  A    between atoms: O2_2  and  C8_13 
REMARK    2  A    between atoms: O3_3  and  C9_14 
REMARK    3  A    between atoms: O4_4  and  C14_19 
REMARK    4  A    between atoms: O5_5  and  C15_20 
REMARK    5  A    between atoms: C1_6  and  C2_7 
REMARK    6  A    between atoms: C1_6  and  C3_8 
REMARK    7  A    between atoms: C2_7  and  C4_9 
REMARK    8  A    between atoms: C4_9  and  C5_10 
ROOT
ATOM      1  C5  UNK     1      43.908  19.074  11.662  1.00  0.00     0.076 A 
ATOM      2  C8  UNK     1      44.648  18.678  12.776  1.00  0.00     0.085 A 
ATOM      3  C9  UNK     1      42.678  18.473  11.393  1.00  0.00     0.085 A 
ATOM      4  C10 UNK     1      44.160  17.680  13.619  1.00  0.00     0.074 A 
ATOM      5  C11 UNK     1      42.189  17.476  12.236  1.00  0.00     0.074 A 
ATOM      6  C14 UNK     1      42.931  17.079  13.350  1.00  0.00     0.071 A 
ENDROOT
BRANCH   1   7
ATOM      7  C4  UNK     1      44.419  20.118  10.781  1.00  0.00     0.165 C 
ATOM      8  O1  UNK     1      44.937  19.826   9.686  1.00  0.00    -0.292 OA
BRANCH   7   9
ATOM      9  C2  UNK     1      44.322  21.593  11.206  1.00  0.00     0.088 C 
BRANCH   9  10
ATOM     10  C1  UNK     1      42.956  22.217  10.914  1.00  0.00     0.046 C 
BRANCH  10  11
ATOM     11  C3  UNK     1      42.943  23.694  11.216  1.00  0.00    -0.058 A 
ATOM     12  C6  UNK     1      43.705  24.555  10.441  1.00  0.00     0.010 A 
ATOM     13  C12 UNK     1      43.692  25.922  10.720  1.00  0.00     0.037 A 
ATOM     14  C15 UNK     1      42.919  26.412  11.773  1.00  0.00     0.065 A 
ATOM     15  C13 UNK     1      42.158  25.534  12.546  1.00  0.00     0.037 A 
ATOM     16  C7  UNK     1      42.170  24.168  12.266  1.00  0.00     0.010 A 
BRANCH  14  17
ATOM     17  O5  UNK     1      42.905  27.745  12.045  1.00  0.00    -0.361 OA
ATOM     18  H14 UNK     1      42.035  28.107  11.806  1.00  0.00     0.217 HD
ENDBRANCH  14  17
ENDBRANCH  10  11
ENDBRANCH   9  10
ENDBRANCH   7   9
ENDBRANCH   1   7
BRANCH   2  19
ATOM     19  O2  UNK     1      45.852  19.252  13.058  1.00  0.00    -0.360 OA
ATOM     20  H11 UNK     1      46.255  18.838  13.838  1.00  0.00     0.217 HD
ENDBRANCH   2  19
BRANCH   3  21
ATOM     21  O3  UNK     1      41.938  18.846  10.311  1.00  0.00    -0.360 OA
ATOM     22  H12 UNK     1      42.209  18.316   9.542  1.00  0.00     0.217 HD
ENDBRANCH   3  21
BRANCH   6  23
ATOM     23  O4  UNK     1      42.455  16.105  14.173  1.00  0.00    -0.361 OA
ATOM     24  H13 UNK     1      42.461  15.258  13.694  1.00  0.00     0.217 HD
ENDBRANCH   6  23
TORSDOF 8
ENDMDL
MODEL 20
REMARK VINA RESULT:      -5.4      1.649      2.904
REMARK  8 active torsions:
REMARK  status: ('A' for Active; 'I' for Inactive)
REMARK    1  A    between atoms: O2_2  and  C8_13 
REMARK    2  A    between atoms: O3_3  and  C9_14 
REMARK    3  A    between atoms: O4_4  and  C14_19 
REMARK    4  A    between atoms: O5_5  and  C15_20 
REMARK    5  A    between atoms: C1_6  and  C2_7 
REMARK    6  A    between atoms: C1_6  and  C3_8 
REMARK    7  A    between atoms: C2_7  and  C4_9 
REMARK    8  A    between atoms: C4_9  and  C5_10 
ROOT
ATOM      1  C5  UNK     1      43.900  19.063  11.678  1.00  0.00     0.076 A 
ATOM      2  C8  UNK     1      42.670  18.466  11.401  1.00  0.00     0.085 A 
ATOM      3  C9  UNK     1      44.633  18.661  12.795  1.00  0.00     0.085 A 
ATOM      4  C10 UNK     1      42.174  17.469  12.240  1.00  0.00     0.074 A 
ATOM      5  C11 UNK     1      44.138  17.664  13.634  1.00  0.00     0.074 A 
ATOM      6  C14 UNK     1      42.907  17.067  13.356  1.00  0.00     0.071 A 
ENDROOT
BRANCH   1   7
ATOM      7  C4  UNK     1      44.418  20.106  10.800  1.00  0.00     0.165 C 
ATOM      8  O1  UNK     1      44.943  19.813   9.708  1.00  0.00    -0.292 OA
BRANCH   7   9
ATOM      9  C2  UNK     1      44.322  21.581  11.224  1.00  0.00     0.088 C 
BRANCH   9  10
ATOM     10  C1  UNK     1      42.963  22.211  10.912  1.00  0.00     0.046 C 
BRANCH  10  11
ATOM     11  C3  UNK     1      42.952  23.688  11.211  1.00  0.00    -0.058 A 
ATOM     12  C6  UNK     1      43.680  24.552  10.407  1.00  0.00     0.010 A 
ATOM     13  C12 UNK     1      43.670  25.919  10.683  1.00  0.00     0.037 A 
ATOM     14  C15 UNK     1      42.932  26.407  11.763  1.00  0.00     0.065 A 
ATOM     15  C13 UNK     1      42.205  25.527  12.565  1.00  0.00     0.037 A 
ATOM     16  C7  UNK     1      42.215  24.161  12.287  1.00  0.00     0.010 A 
BRANCH  14  17
ATOM     17  O5  UNK     1      42.921  27.741  12.032  1.00  0.00    -0.361 OA
ATOM     18  H14 UNK     1      42.302  27.911  12.761  1.00  0.00     0.217 HD
ENDBRANCH  14  17
ENDBRANCH  10  11
ENDBRANCH   9  10
ENDBRANCH   7   9
ENDBRANCH   1   7
BRANCH   2  19
ATOM     19  O2  UNK     1      41.937  18.843  10.315  1.00  0.00    -0.360 OA
ATOM     20  H11 UNK     1      41.166  18.264  10.204  1.00  0.00     0.217 HD
ENDBRANCH   2  19
BRANCH   3  21
ATOM     21  O3  UNK     1      45.838  19.231  13.083  1.00  0.00    -0.360 OA
ATOM     22  H12 UNK     1      45.697  20.157  13.346  1.00  0.00     0.217 HD
ENDBRANCH   3  21
BRANCH   6  23
ATOM     23  O4  UNK     1      42.423  16.095  14.175  1.00  0.00    -0.361 OA
ATOM     24  H13 UNK     1      43.169  15.582  14.531  1.00  0.00     0.217 HD
ENDBRANCH   6  23
TORSDOF 8
ENDMDL
