MODEL 1
REMARK VINA RESULT:      -6.0      0.000      0.000
REMARK  8 active torsions:
REMARK  status: ('A' for Active; 'I' for Inactive)
REMARK    1  A    between atoms: O2_2  and  C8_13 
REMARK    2  A    between atoms: O3_3  and  C9_14 
REMARK    3  A    between atoms: O4_4  and  C14_19 
REMARK    4  A    between atoms: O5_5  and  C15_20 
REMARK    5  A    between atoms: C1_6  and  C2_7 
REMARK    6  A    between atoms: C1_6  and  C3_8 
REMARK    7  A    between atoms: C2_7  and  C4_9 
REMARK    8  A    between atoms: C4_9  and  C5_10 
ROOT
ATOM      1  C5  UNK     1      40.965  19.439  11.517  1.00  0.00     0.076 A 
ATOM      2  C8  UNK     1      42.153  18.792  11.173  1.00  0.00     0.085 A 
ATOM      3  C9  UNK     1      40.220  18.994  12.609  1.00  0.00     0.085 A 
ATOM      4  C10 UNK     1      42.595  17.701  11.921  1.00  0.00     0.074 A 
ATOM      5  C11 UNK     1      40.662  17.903  13.357  1.00  0.00     0.074 A 
ATOM      6  C14 UNK     1      41.849  17.256  13.013  1.00  0.00     0.071 A 
ENDROOT
BRANCH   1   7
ATOM      7  C4  UNK     1      40.505  20.580  10.734  1.00  0.00     0.165 C 
ATOM      8  O1  UNK     1      39.829  20.410   9.701  1.00  0.00    -0.292 OA
BRANCH   7   9
ATOM      9  C2  UNK     1      40.857  22.008  11.184  1.00  0.00     0.088 C 
BRANCH   9  10
ATOM     10  C1  UNK     1      42.259  22.447  10.758  1.00  0.00     0.046 C 
BRANCH  10  11
ATOM     11  C3  UNK     1      42.526  23.886  11.120  1.00  0.00    -0.058 A 
ATOM     12  C6  UNK     1      41.847  24.458  12.184  1.00  0.00     0.010 A 
ATOM     13  C12 UNK     1      42.094  25.790  12.519  1.00  0.00     0.037 A 
ATOM     14  C15 UNK     1      43.017  26.534  11.783  1.00  0.00     0.065 A 
ATOM     15  C13 UNK     1      43.694  25.946  10.714  1.00  0.00     0.037 A 
ATOM     16  C7  UNK     1      43.446  24.615  10.380  1.00  0.00     0.010 A 
BRANCH  14  17
ATOM     17  O5  UNK     1      43.260  27.832  12.111  1.00  0.00    -0.361 OA
ATOM     18  H14 UNK     1      42.439  28.343  12.006  1.00  0.00     0.217 HD
ENDBRANCH  14  17
ENDBRANCH  10  11
ENDBRANCH   9  10
ENDBRANCH   7   9
ENDBRANCH   1   7
BRANCH   2  19
ATOM     19  O2  UNK     1      42.897  19.210  10.110  1.00  0.00    -0.360 OA
ATOM     20  H11 UNK     1      43.171  20.134  10.227  1.00  0.00     0.217 HD
ENDBRANCH   2  19
BRANCH   3  21
ATOM     21  O3  UNK     1      39.057  19.612  12.962  1.00  0.00    -0.360 OA
ATOM     22  H12 UNK     1      38.309  19.027  12.749  1.00  0.00     0.217 HD
ENDBRANCH   3  21
BRANCH   6  23
ATOM     23  O4  UNK     1      42.280  16.191  13.743  1.00  0.00    -0.361 OA
ATOM     24  H13 UNK     1      42.896  15.667  13.202  1.00  0.00     0.217 HD
ENDBRANCH   6  23
TORSDOF 8
ENDMDL
MODEL 2
REMARK VINA RESULT:      -6.0      0.005      1.863
REMARK  8 active torsions:
REMARK  status: ('A' for Active; 'I' for Inactive)
REMARK    1  A    between atoms: O2_2  and  C8_13 
REMARK    2  A    between atoms: O3_3  and  C9_14 
REMARK    3  A    between atoms: O4_4  and  C14_19 
REMARK    4  A    between atoms: O5_5  and  C15_20 
REMARK    5  A    between atoms: C1_6  and  C2_7 
REMARK    6  A    between atoms: C1_6  and  C3_8 
REMARK    7  A    between atoms: C2_7  and  C4_9 
REMARK    8  A    between atoms: C4_9  and  C5_10 
ROOT
ATOM      1  C5  UNK     1      40.971  19.438  11.516  1.00  0.00     0.076 A 
ATOM      2  C8  UNK     1      40.227  18.995  12.609  1.00  0.00     0.085 A 
ATOM      3  C9  UNK     1      42.157  18.790  11.171  1.00  0.00     0.085 A 
ATOM      4  C10 UNK     1      40.669  17.904  13.357  1.00  0.00     0.074 A 
ATOM      5  C11 UNK     1      42.600  17.700  11.918  1.00  0.00     0.074 A 
ATOM      6  C14 UNK     1      41.855  17.256  13.013  1.00  0.00     0.071 A 
ENDROOT
BRANCH   1   7
ATOM      7  C4  UNK     1      40.508  20.579  10.734  1.00  0.00     0.165 C 
ATOM      8  O1  UNK     1      39.831  20.408   9.701  1.00  0.00    -0.292 OA
BRANCH   7   9
ATOM      9  C2  UNK     1      40.860  22.007  11.182  1.00  0.00     0.088 C 
BRANCH   9  10
ATOM     10  C1  UNK     1      42.262  22.447  10.756  1.00  0.00     0.046 C 
BRANCH  10  11
ATOM     11  C3  UNK     1      42.529  23.885  11.118  1.00  0.00    -0.058 A 
ATOM     12  C6  UNK     1      41.852  24.457  12.184  1.00  0.00     0.010 A 
ATOM     13  C12 UNK     1      42.099  25.789  12.518  1.00  0.00     0.037 A 
ATOM     14  C15 UNK     1      43.020  26.534  11.781  1.00  0.00     0.065 A 
ATOM     15  C13 UNK     1      43.695  25.946  10.710  1.00  0.00     0.037 A 
ATOM     16  C7  UNK     1      43.447  24.615  10.377  1.00  0.00     0.010 A 
BRANCH  14  17
ATOM     17  O5  UNK     1      43.262  27.832  12.108  1.00  0.00    -0.361 OA
ATOM     18  H14 UNK     1      43.164  28.382  11.312  1.00  0.00     0.217 HD
ENDBRANCH  14  17
ENDBRANCH  10  11
ENDBRANCH   9  10
ENDBRANCH   7   9
ENDBRANCH   1   7
BRANCH   2  19
ATOM     19  O2  UNK     1      39.065  19.613  12.964  1.00  0.00    -0.360 OA
ATOM     20  H11 UNK     1      39.189  20.140  13.769  1.00  0.00     0.217 HD
ENDBRANCH   2  19
BRANCH   3  21
ATOM     21  O3  UNK     1      42.899  19.207  10.106  1.00  0.00    -0.360 OA
ATOM     22  H12 UNK     1      43.758  19.536  10.425  1.00  0.00     0.217 HD
ENDBRANCH   3  21
BRANCH   6  23
ATOM     23  O4  UNK     1      42.287  16.192  13.743  1.00  0.00    -0.361 OA
ATOM     24  H13 UNK     1      42.040  16.328  14.674  1.00  0.00     0.217 HD
ENDBRANCH   6  23
TORSDOF 8
ENDMDL
MODEL 3
REMARK VINA RESULT:      -5.8      4.290      7.215
REMARK  8 active torsions:
REMARK  status: ('A' for Active; 'I' for Inactive)
REMARK    1  A    between atoms: O2_2  and  C8_13 
REMARK    2  A    between atoms: O3_3  and  C9_14 
REMARK    3  A    between atoms: O4_4  and  C14_19 
REMARK    4  A    between atoms: O5_5  and  C15_20 
REMARK    5  A    between atoms: C1_6  and  C2_7 
REMARK    6  A    between atoms: C1_6  and  C3_8 
REMARK    7  A    between atoms: C2_7  and  C4_9 
REMARK    8  A    between atoms: C4_9  and  C5_10 
ROOT
ATOM      1  C5  UNK     1      41.590  25.453  12.627  1.00  0.00     0.076 A 
ATOM      2  C8  UNK     1      42.098  26.696  12.251  1.00  0.00     0.085 A 
ATOM      3  C9  UNK     1      42.000  24.301  11.957  1.00  0.00     0.085 A 
ATOM      4  C10 UNK     1      43.016  26.787  11.205  1.00  0.00     0.074 A 
ATOM      5  C11 UNK     1      42.918  24.391  10.912  1.00  0.00     0.074 A 
ATOM      6  C14 UNK     1      43.427  25.635  10.535  1.00  0.00     0.071 A 
ENDROOT
BRANCH   1   7
ATOM      7  C4  UNK     1      40.630  25.359  13.721  1.00  0.00     0.165 C 
ATOM      8  O1  UNK     1      40.991  24.979  14.852  1.00  0.00    -0.292 OA
BRANCH   7   9
ATOM      9  C2  UNK     1      39.156  25.729  13.480  1.00  0.00     0.088 C 
BRANCH   9  10
ATOM     10  C1  UNK     1      38.355  24.611  12.809  1.00  0.00     0.046 C 
BRANCH  10  11
ATOM     11  C3  UNK     1      37.372  25.156  11.805  1.00  0.00    -0.058 A 
ATOM     12  C6  UNK     1      37.408  26.502  11.477  1.00  0.00     0.010 A 
ATOM     13  C12 UNK     1      36.498  27.007  10.547  1.00  0.00     0.037 A 
ATOM     14  C15 UNK     1      35.560  26.158   9.959  1.00  0.00     0.065 A 
ATOM     15  C13 UNK     1      35.533  24.805  10.299  1.00  0.00     0.037 A 
ATOM     16  C7  UNK     1      36.444  24.301  11.227  1.00  0.00     0.010 A 
BRANCH  14  17
ATOM     17  O5  UNK     1      34.673  26.649   9.052  1.00  0.00    -0.361 OA
ATOM     18  H14 UNK     1      34.152  25.913   8.688  1.00  0.00     0.217 HD
ENDBRANCH  14  17
ENDBRANCH  10  11
ENDBRANCH   9  10
ENDBRANCH   7   9
ENDBRANCH   1   7
BRANCH   2  19
ATOM     19  O2  UNK     1      41.711  27.835  12.893  1.00  0.00    -0.360 OA
ATOM     20  H11 UNK     1      41.218  28.416  12.291  1.00  0.00     0.217 HD
ENDBRANCH   2  19
BRANCH   3  21
ATOM     21  O3  UNK     1      41.516  23.076  12.309  1.00  0.00    -0.360 OA
ATOM     22  H12 UNK     1      41.940  22.395  11.758  1.00  0.00     0.217 HD
ENDBRANCH   3  21
BRANCH   6  23
ATOM     23  O4  UNK     1      44.322  25.723   9.515  1.00  0.00    -0.361 OA
ATOM     24  H13 UNK     1      45.031  26.338   9.770  1.00  0.00     0.217 HD
ENDBRANCH   6  23
TORSDOF 8
ENDMDL
MODEL 4
REMARK VINA RESULT:      -5.8      4.281      7.185
REMARK  8 active torsions:
REMARK  status: ('A' for Active; 'I' for Inactive)
REMARK    1  A    between atoms: O2_2  and  C8_13 
REMARK    2  A    between atoms: O3_3  and  C9_14 
REMARK    3  A    between atoms: O4_4  and  C14_19 
REMARK    4  A    between atoms: O5_5  and  C15_20 
REMARK    5  A    between atoms: C1_6  and  C2_7 
REMARK    6  A    between atoms: C1_6  and  C3_8 
REMARK    7  A    between atoms: C2_7  and  C4_9 
REMARK    8  A    between atoms: C4_9  and  C5_10 
ROOT
ATOM      1  C5  UNK     1      41.601  25.431  12.624  1.00  0.00     0.076 A 
ATOM      2  C8  UNK     1      42.027  24.285  11.953  1.00  0.00     0.085 A 
ATOM      3  C9  UNK     1      42.096  26.681  12.253  1.00  0.00     0.085 A 
ATOM      4  C10 UNK     1      42.949  24.389  10.911  1.00  0.00     0.074 A 
ATOM      5  C11 UNK     1      43.017  26.786  11.212  1.00  0.00     0.074 A 
ATOM      6  C14 UNK     1      43.444  25.639  10.540  1.00  0.00     0.071 A 
ENDROOT
BRANCH   1   7
ATOM      7  C4  UNK     1      40.637  25.321  13.713  1.00  0.00     0.165 C 
ATOM      8  O1  UNK     1      40.997  24.943  14.845  1.00  0.00    -0.292 OA
BRANCH   7   9
ATOM      9  C2  UNK     1      39.160  25.672  13.465  1.00  0.00     0.088 C 
BRANCH   9  10
ATOM     10  C1  UNK     1      38.382  24.553  12.769  1.00  0.00     0.046 C 
BRANCH  10  11
ATOM     11  C3  UNK     1      37.370  25.100  11.795  1.00  0.00    -0.058 A 
ATOM     12  C6  UNK     1      37.392  26.449  11.476  1.00  0.00     0.010 A 
ATOM     13  C12 UNK     1      36.456  26.956  10.574  1.00  0.00     0.037 A 
ATOM     14  C15 UNK     1      35.507  26.107  10.002  1.00  0.00     0.065 A 
ATOM     15  C13 UNK     1      35.496  24.751  10.332  1.00  0.00     0.037 A 
ATOM     16  C7  UNK     1      36.433  24.245  11.233  1.00  0.00     0.010 A 
BRANCH  14  17
ATOM     17  O5  UNK     1      34.595  26.600   9.122  1.00  0.00    -0.361 OA
ATOM     18  H14 UNK     1      34.165  25.859   8.664  1.00  0.00     0.217 HD
ENDBRANCH  14  17
ENDBRANCH  10  11
ENDBRANCH   9  10
ENDBRANCH   7   9
ENDBRANCH   1   7
BRANCH   2  19
ATOM     19  O2  UNK     1      41.556  23.054  12.299  1.00  0.00    -0.360 OA
ATOM     20  H11 UNK     1      42.251  22.528  12.725  1.00  0.00     0.217 HD
ENDBRANCH   2  19
BRANCH   3  21
ATOM     21  O3  UNK     1      41.692  27.814  12.896  1.00  0.00    -0.360 OA
ATOM     22  H12 UNK     1      42.473  28.278  13.243  1.00  0.00     0.217 HD
ENDBRANCH   3  21
BRANCH   6  23
ATOM     23  O4  UNK     1      44.344  25.741   9.525  1.00  0.00    -0.361 OA
ATOM     24  H13 UNK     1      44.200  25.008   8.902  1.00  0.00     0.217 HD
ENDBRANCH   6  23
TORSDOF 8
ENDMDL
MODEL 5
REMARK VINA RESULT:      -5.8      3.848      4.641
REMARK  8 active torsions:
REMARK  status: ('A' for Active; 'I' for Inactive)
REMARK    1  A    between atoms: O2_2  and  C8_13 
REMARK    2  A    between atoms: O3_3  and  C9_14 
REMARK    3  A    between atoms: O4_4  and  C14_19 
REMARK    4  A    between atoms: O5_5  and  C15_20 
REMARK    5  A    between atoms: C1_6  and  C2_7 
REMARK    6  A    between atoms: C1_6  and  C3_8 
REMARK    7  A    between atoms: C2_7  and  C4_9 
REMARK    8  A    between atoms: C4_9  and  C5_10 
ROOT
ATOM      1  C5  UNK     1      39.714  20.112  11.713  1.00  0.00     0.076 A 
ATOM      2  C8  UNK     1      40.693  20.126  10.720  1.00  0.00     0.085 A 
ATOM      3  C9  UNK     1      39.827  19.233  12.790  1.00  0.00     0.085 A 
ATOM      4  C10 UNK     1      41.784  19.262  10.803  1.00  0.00     0.074 A 
ATOM      5  C11 UNK     1      40.918  18.369  12.874  1.00  0.00     0.074 A 
ATOM      6  C14 UNK     1      41.897  18.383  11.880  1.00  0.00     0.071 A 
ENDROOT
BRANCH   1   7
ATOM      7  C4  UNK     1      38.574  21.017  11.625  1.00  0.00     0.165 C 
ATOM      8  O1  UNK     1      37.425  20.574  11.428  1.00  0.00    -0.292 OA
BRANCH   7   9
ATOM      9  C2  UNK     1      38.787  22.533  11.774  1.00  0.00     0.088 C 
BRANCH   9  10
ATOM     10  C1  UNK     1      37.643  23.235  12.508  1.00  0.00     0.046 C 
BRANCH  10  11
ATOM     11  C3  UNK     1      36.901  24.186  11.604  1.00  0.00    -0.058 A 
ATOM     12  C6  UNK     1      35.967  23.687  10.709  1.00  0.00     0.010 A 
ATOM     13  C12 UNK     1      35.280  24.568   9.873  1.00  0.00     0.037 A 
ATOM     14  C15 UNK     1      35.538  25.938   9.940  1.00  0.00     0.065 A 
ATOM     15  C13 UNK     1      36.481  26.426  10.844  1.00  0.00     0.037 A 
ATOM     16  C7  UNK     1      37.166  25.546  11.681  1.00  0.00     0.010 A 
BRANCH  14  17
ATOM     17  O5  UNK     1      34.867  26.796   9.125  1.00  0.00    -0.361 OA
ATOM     18  H14 UNK     1      34.697  26.356   8.275  1.00  0.00     0.217 HD
ENDBRANCH  14  17
ENDBRANCH  10  11
ENDBRANCH   9  10
ENDBRANCH   7   9
ENDBRANCH   1   7
BRANCH   2  19
ATOM     19  O2  UNK     1      40.603  20.977   9.658  1.00  0.00    -0.360 OA
ATOM     20  H11 UNK     1      39.677  21.209   9.482  1.00  0.00     0.217 HD
ENDBRANCH   2  19
BRANCH   3  21
ATOM     21  O3  UNK     1      38.882  19.204  13.772  1.00  0.00    -0.360 OA
ATOM     22  H12 UNK     1      38.000  19.270  13.367  1.00  0.00     0.217 HD
ENDBRANCH   3  21
BRANCH   6  23
ATOM     23  O4  UNK     1      42.961  17.539  11.962  1.00  0.00    -0.361 OA
ATOM     24  H13 UNK     1      43.402  17.670  12.819  1.00  0.00     0.217 HD
ENDBRANCH   6  23
TORSDOF 8
ENDMDL
MODEL 6
REMARK VINA RESULT:      -5.8      3.848      4.929
REMARK  8 active torsions:
REMARK  status: ('A' for Active; 'I' for Inactive)
REMARK    1  A    between atoms: O2_2  and  C8_13 
REMARK    2  A    between atoms: O3_3  and  C9_14 
REMARK    3  A    between atoms: O4_4  and  C14_19 
REMARK    4  A    between atoms: O5_5  and  C15_20 
REMARK    5  A    between atoms: C1_6  and  C2_7 
REMARK    6  A    between atoms: C1_6  and  C3_8 
REMARK    7  A    between atoms: C2_7  and  C4_9 
REMARK    8  A    between atoms: C4_9  and  C5_10 
ROOT
ATOM      1  C5  UNK     1      39.715  20.113  11.714  1.00  0.00     0.076 A 
ATOM      2  C8  UNK     1      39.829  19.235  12.792  1.00  0.00     0.085 A 
ATOM      3  C9  UNK     1      40.693  20.125  10.719  1.00  0.00     0.085 A 
ATOM      4  C10 UNK     1      40.920  18.371  12.876  1.00  0.00     0.074 A 
ATOM      5  C11 UNK     1      41.784  19.261  10.802  1.00  0.00     0.074 A 
ATOM      6  C14 UNK     1      41.898  18.383  11.881  1.00  0.00     0.071 A 
ENDROOT
BRANCH   1   7
ATOM      7  C4  UNK     1      38.573  21.016  11.627  1.00  0.00     0.165 C 
ATOM      8  O1  UNK     1      37.426  20.572  11.429  1.00  0.00    -0.292 OA
BRANCH   7   9
ATOM      9  C2  UNK     1      38.784  22.532  11.777  1.00  0.00     0.088 C 
BRANCH   9  10
ATOM     10  C1  UNK     1      37.637  23.232  12.509  1.00  0.00     0.046 C 
BRANCH  10  11
ATOM     11  C3  UNK     1      36.899  24.185  11.604  1.00  0.00    -0.058 A 
ATOM     12  C6  UNK     1      37.167  25.543  11.680  1.00  0.00     0.010 A 
ATOM     13  C12 UNK     1      36.483  26.425  10.842  1.00  0.00     0.037 A 
ATOM     14  C15 UNK     1      35.537  25.937   9.939  1.00  0.00     0.065 A 
ATOM     15  C13 UNK     1      35.277  24.568   9.873  1.00  0.00     0.037 A 
ATOM     16  C7  UNK     1      35.961  23.687  10.710  1.00  0.00     0.010 A 
BRANCH  14  17
ATOM     17  O5  UNK     1      34.872  26.797   9.121  1.00  0.00    -0.361 OA
ATOM     18  H14 UNK     1      34.199  27.269   9.640  1.00  0.00     0.217 HD
ENDBRANCH  14  17
ENDBRANCH  10  11
ENDBRANCH   9  10
ENDBRANCH   7   9
ENDBRANCH   1   7
BRANCH   2  19
ATOM     19  O2  UNK     1      38.885  19.206  13.775  1.00  0.00    -0.360 OA
ATOM     20  H11 UNK     1      38.067  18.795  13.453  1.00  0.00     0.217 HD
ENDBRANCH   2  19
BRANCH   3  21
ATOM     21  O3  UNK     1      40.600  20.974   9.656  1.00  0.00    -0.360 OA
ATOM     22  H12 UNK     1      41.482  21.337   9.461  1.00  0.00     0.217 HD
ENDBRANCH   3  21
BRANCH   6  23
ATOM     23  O4  UNK     1      42.963  17.540  11.963  1.00  0.00    -0.361 OA
ATOM     24  H13 UNK     1      43.476  17.600  11.139  1.00  0.00     0.217 HD
ENDBRANCH   6  23
TORSDOF 8
ENDMDL
MODEL 7
REMARK VINA RESULT:      -5.7      3.983      6.986
REMARK  8 active torsions:
REMARK  status: ('A' for Active; 'I' for Inactive)
REMARK    1  A    between atoms: O2_2  and  C8_13 
REMARK    2  A    between atoms: O3_3  and  C9_14 
REMARK    3  A    between atoms: O4_4  and  C14_19 
REMARK    4  A    between atoms: O5_5  and  C15_20 
REMARK    5  A    between atoms: C1_6  and  C2_7 
REMARK    6  A    between atoms: C1_6  and  C3_8 
REMARK    7  A    between atoms: C2_7  and  C4_9 
REMARK    8  A    between atoms: C4_9  and  C5_10 
ROOT
ATOM      1  C5  UNK     1      41.962  25.565  12.153  1.00  0.00     0.076 A 
ATOM      2  C8  UNK     1      41.782  24.184  12.081  1.00  0.00     0.085 A 
ATOM      3  C9  UNK     1      43.040  26.163  11.500  1.00  0.00     0.085 A 
ATOM      4  C10 UNK     1      42.681  23.400  11.358  1.00  0.00     0.074 A 
ATOM      5  C11 UNK     1      43.938  25.380  10.776  1.00  0.00     0.074 A 
ATOM      6  C14 UNK     1      43.759  23.998  10.704  1.00  0.00     0.071 A 
ENDROOT
BRANCH   1   7
ATOM      7  C4  UNK     1      41.022  26.384  12.910  1.00  0.00     0.165 C 
ATOM      8  O1  UNK     1      41.092  26.447  14.153  1.00  0.00    -0.292 OA
BRANCH   7   9
ATOM      9  C2  UNK     1      39.930  27.176  12.171  1.00  0.00     0.088 C 
BRANCH   9  10
ATOM     10  C1  UNK     1      38.558  27.086  12.843  1.00  0.00     0.046 C 
BRANCH  10  11
ATOM     11  C3  UNK     1      37.598  26.249  12.039  1.00  0.00    -0.058 A 
ATOM     12  C6  UNK     1      37.576  24.874  12.219  1.00  0.00     0.010 A 
ATOM     13  C12 UNK     1      36.686  24.099  11.475  1.00  0.00     0.037 A 
ATOM     14  C15 UNK     1      35.829  24.708  10.557  1.00  0.00     0.065 A 
ATOM     15  C13 UNK     1      35.862  26.092  10.385  1.00  0.00     0.037 A 
ATOM     16  C7  UNK     1      36.751  26.866  11.130  1.00  0.00     0.010 A 
BRANCH  14  17
ATOM     17  O5  UNK     1      34.960  23.952   9.833  1.00  0.00    -0.361 OA
ATOM     18  H14 UNK     1      35.464  23.412   9.200  1.00  0.00     0.217 HD
ENDBRANCH  14  17
ENDBRANCH  10  11
ENDBRANCH   9  10
ENDBRANCH   7   9
ENDBRANCH   1   7
BRANCH   2  19
ATOM     19  O2  UNK     1      40.736  23.579  12.712  1.00  0.00    -0.360 OA
ATOM     20  H11 UNK     1      40.032  24.220  12.899  1.00  0.00     0.217 HD
ENDBRANCH   2  19
BRANCH   3  21
ATOM     21  O3  UNK     1      43.233  27.511  11.556  1.00  0.00    -0.360 OA
ATOM     22  H12 UNK     1      43.737  27.794  10.773  1.00  0.00     0.217 HD
ENDBRANCH   3  21
BRANCH   6  23
ATOM     23  O4  UNK     1      44.636  23.234   9.999  1.00  0.00    -0.361 OA
ATOM     24  H13 UNK     1      45.435  23.758   9.817  1.00  0.00     0.217 HD
ENDBRANCH   6  23
TORSDOF 8
ENDMDL
MODEL 8
REMARK VINA RESULT:      -5.7      3.983      6.877
REMARK  8 active torsions:
REMARK  status: ('A' for Active; 'I' for Inactive)
REMARK    1  A    between atoms: O2_2  and  C8_13 
REMARK    2  A    between atoms: O3_3  and  C9_14 
REMARK    3  A    between atoms: O4_4  and  C14_19 
REMARK    4  A    between atoms: O5_5  and  C15_20 
REMARK    5  A    between atoms: C1_6  and  C2_7 
REMARK    6  A    between atoms: C1_6  and  C3_8 
REMARK    7  A    between atoms: C2_7  and  C4_9 
REMARK    8  A    between atoms: C4_9  and  C5_10 
ROOT
ATOM      1  C5  UNK     1      41.959  25.563  12.153  1.00  0.00     0.076 A 
ATOM      2  C8  UNK     1      43.037  26.163  11.503  1.00  0.00     0.085 A 
ATOM      3  C9  UNK     1      41.780  24.182  12.074  1.00  0.00     0.085 A 
ATOM      4  C10 UNK     1      43.935  25.384  10.774  1.00  0.00     0.074 A 
ATOM      5  C11 UNK     1      42.677  23.401  11.346  1.00  0.00     0.074 A 
ATOM      6  C14 UNK     1      43.755  24.003  10.695  1.00  0.00     0.071 A 
ENDROOT
BRANCH   1   7
ATOM      7  C4  UNK     1      41.021  26.379  12.916  1.00  0.00     0.165 C 
ATOM      8  O1  UNK     1      41.088  26.428  14.159  1.00  0.00    -0.292 OA
BRANCH   7   9
ATOM      9  C2  UNK     1      39.937  27.185  12.181  1.00  0.00     0.088 C 
BRANCH   9  10
ATOM     10  C1  UNK     1      38.564  27.101  12.851  1.00  0.00     0.046 C 
BRANCH  10  11
ATOM     11  C3  UNK     1      37.601  26.268  12.044  1.00  0.00    -0.058 A 
ATOM     12  C6  UNK     1      36.748  26.891  11.145  1.00  0.00     0.010 A 
ATOM     13  C12 UNK     1      35.857  26.120  10.398  1.00  0.00     0.037 A 
ATOM     14  C15 UNK     1      35.829  24.734  10.560  1.00  0.00     0.065 A 
ATOM     15  C13 UNK     1      36.692  24.120  11.468  1.00  0.00     0.037 A 
ATOM     16  C7  UNK     1      37.583  24.891  12.214  1.00  0.00     0.010 A 
BRANCH  14  17
ATOM     17  O5  UNK     1      34.961  23.982   9.830  1.00  0.00    -0.361 OA
ATOM     18  H14 UNK     1      35.419  23.649   9.040  1.00  0.00     0.217 HD
ENDBRANCH  14  17
ENDBRANCH  10  11
ENDBRANCH   9  10
ENDBRANCH   7   9
ENDBRANCH   1   7
BRANCH   2  19
ATOM     19  O2  UNK     1      43.232  27.511  11.567  1.00  0.00    -0.360 OA
ATOM     20  H11 UNK     1      43.258  27.810  12.489  1.00  0.00     0.217 HD
ENDBRANCH   2  19
BRANCH   3  21
ATOM     21  O3  UNK     1      40.733  23.574  12.703  1.00  0.00    -0.360 OA
ATOM     22  H12 UNK     1      40.078  23.301  12.038  1.00  0.00     0.217 HD
ENDBRANCH   3  21
BRANCH   6  23
ATOM     23  O4  UNK     1      44.630  23.241   9.984  1.00  0.00    -0.361 OA
ATOM     24  H13 UNK     1      44.749  22.390  10.438  1.00  0.00     0.217 HD
ENDBRANCH   6  23
TORSDOF 8
ENDMDL
MODEL 9
REMARK VINA RESULT:      -5.7      2.073      4.029
REMARK  8 active torsions:
REMARK  status: ('A' for Active; 'I' for Inactive)
REMARK    1  A    between atoms: O2_2  and  C8_13 
REMARK    2  A    between atoms: O3_3  and  C9_14 
REMARK    3  A    between atoms: O4_4  and  C14_19 
REMARK    4  A    between atoms: O5_5  and  C15_20 
REMARK    5  A    between atoms: C1_6  and  C2_7 
REMARK    6  A    between atoms: C1_6  and  C3_8 
REMARK    7  A    between atoms: C2_7  and  C4_9 
REMARK    8  A    between atoms: C4_9  and  C5_10 
ROOT
ATOM      1  C5  UNK     1      39.533  21.297  11.498  1.00  0.00     0.076 A 
ATOM      2  C8  UNK     1      38.993  21.238  10.214  1.00  0.00     0.085 A 
ATOM      3  C9  UNK     1      38.910  22.066  12.482  1.00  0.00     0.085 A 
ATOM      4  C10 UNK     1      37.831  21.948   9.912  1.00  0.00     0.074 A 
ATOM      5  C11 UNK     1      37.748  22.776  12.181  1.00  0.00     0.074 A 
ATOM      6  C14 UNK     1      37.208  22.717  10.895  1.00  0.00     0.071 A 
ENDROOT
BRANCH   1   7
ATOM      7  C4  UNK     1      40.748  20.554  11.813  1.00  0.00     0.165 C 
ATOM      8  O1  UNK     1      40.718  19.315  11.948  1.00  0.00    -0.292 OA
BRANCH   7   9
ATOM      9  C2  UNK     1      42.080  21.303  11.983  1.00  0.00     0.088 C 
BRANCH   9  10
ATOM     10  C1  UNK     1      42.521  22.046  10.720  1.00  0.00     0.046 C 
BRANCH  10  11
ATOM     11  C3  UNK     1      42.700  23.521  10.975  1.00  0.00    -0.058 A 
ATOM     12  C6  UNK     1      43.548  24.256  10.162  1.00  0.00     0.010 A 
ATOM     13  C12 UNK     1      43.713  25.621  10.398  1.00  0.00     0.037 A 
ATOM     14  C15 UNK     1      43.028  26.235  11.448  1.00  0.00     0.065 A 
ATOM     15  C13 UNK     1      42.178  25.484  12.259  1.00  0.00     0.037 A 
ATOM     16  C7  UNK     1      42.013  24.119  12.022  1.00  0.00     0.010 A 
BRANCH  14  17
ATOM     17  O5  UNK     1      43.188  27.566  11.677  1.00  0.00    -0.361 OA
ATOM     18  H14 UNK     1      42.964  28.055  10.867  1.00  0.00     0.217 HD
ENDBRANCH  14  17
ENDBRANCH  10  11
ENDBRANCH   9  10
ENDBRANCH   7   9
ENDBRANCH   1   7
BRANCH   2  19
ATOM     19  O2  UNK     1      39.585  20.493   9.238  1.00  0.00    -0.360 OA
ATOM     20  H11 UNK     1      39.952  19.674   9.607  1.00  0.00     0.217 HD
ENDBRANCH   2  19
BRANCH   3  21
ATOM     21  O3  UNK     1      39.421  22.136  13.744  1.00  0.00    -0.360 OA
ATOM     22  H12 UNK     1      38.719  21.925  14.383  1.00  0.00     0.217 HD
ENDBRANCH   3  21
BRANCH   6  23
ATOM     23  O4  UNK     1      36.075  23.410  10.601  1.00  0.00    -0.361 OA
ATOM     24  H13 UNK     1      35.765  23.862  11.405  1.00  0.00     0.217 HD
ENDBRANCH   6  23
TORSDOF 8
ENDMDL
MODEL 10
REMARK VINA RESULT:      -5.7      2.081      4.292
REMARK  8 active torsions:
REMARK  status: ('A' for Active; 'I' for Inactive)
REMARK    1  A    between atoms: O2_2  and  C8_13 
REMARK    2  A    between atoms: O3_3  and  C9_14 
REMARK    3  A    between atoms: O4_4  and  C14_19 
REMARK    4  A    between atoms: O5_5  and  C15_20 
REMARK    5  A    between atoms: C1_6  and  C2_7 
REMARK    6  A    between atoms: C1_6  and  C3_8 
REMARK    7  A    between atoms: C2_7  and  C4_9 
REMARK    8  A    between atoms: C4_9  and  C5_10 
ROOT
ATOM      1  C5  UNK     1      39.517  21.311  11.502  1.00  0.00     0.076 A 
ATOM      2  C8  UNK     1      38.896  22.081  12.486  1.00  0.00     0.085 A 
ATOM      3  C9  UNK     1      38.972  21.249  10.219  1.00  0.00     0.085 A 
ATOM      4  C10 UNK     1      37.731  22.787  12.188  1.00  0.00     0.074 A 
ATOM      5  C11 UNK     1      37.808  21.955   9.920  1.00  0.00     0.074 A 
ATOM      6  C14 UNK     1      37.186  22.725  10.905  1.00  0.00     0.071 A 
ENDROOT
BRANCH   1   7
ATOM      7  C4  UNK     1      40.736  20.573  11.814  1.00  0.00     0.165 C 
ATOM      8  O1  UNK     1      40.709  19.336  11.962  1.00  0.00    -0.292 OA
BRANCH   7   9
ATOM      9  C2  UNK     1      42.068  21.327  11.967  1.00  0.00     0.088 C 
BRANCH   9  10
ATOM     10  C1  UNK     1      42.486  22.078  10.702  1.00  0.00     0.046 C 
BRANCH  10  11
ATOM     11  C3  UNK     1      42.684  23.548  10.966  1.00  0.00    -0.058 A 
ATOM     12  C6  UNK     1      43.540  24.278  10.155  1.00  0.00     0.010 A 
ATOM     13  C12 UNK     1      43.722  25.639  10.400  1.00  0.00     0.037 A 
ATOM     14  C15 UNK     1      43.047  26.255  11.455  1.00  0.00     0.065 A 
ATOM     15  C13 UNK     1      42.189  25.509  12.263  1.00  0.00     0.037 A 
ATOM     16  C7  UNK     1      42.006  24.149  12.018  1.00  0.00     0.010 A 
BRANCH  14  17
ATOM     17  O5  UNK     1      43.224  27.583  11.692  1.00  0.00    -0.361 OA
ATOM     18  H14 UNK     1      43.894  27.927  11.078  1.00  0.00     0.217 HD
ENDBRANCH  14  17
ENDBRANCH  10  11
ENDBRANCH   9  10
ENDBRANCH   7   9
ENDBRANCH   1   7
BRANCH   2  19
ATOM     19  O2  UNK     1      39.412  22.156  13.746  1.00  0.00    -0.360 OA
ATOM     20  H11 UNK     1      39.174  21.368  14.261  1.00  0.00     0.217 HD
ENDBRANCH   2  19
BRANCH   3  21
ATOM     21  O3  UNK     1      39.564  20.504   9.242  1.00  0.00    -0.360 OA
ATOM     22  H12 UNK     1      39.027  19.709   9.080  1.00  0.00     0.217 HD
ENDBRANCH   3  21
BRANCH   6  23
ATOM     23  O4  UNK     1      36.049  23.413  10.614  1.00  0.00    -0.361 OA
ATOM     24  H13 UNK     1      36.286  24.217  10.121  1.00  0.00     0.217 HD
ENDBRANCH   6  23
TORSDOF 8
ENDMDL
MODEL 11
REMARK VINA RESULT:      -5.7      4.096      6.908
REMARK  8 active torsions:
REMARK  status: ('A' for Active; 'I' for Inactive)
REMARK    1  A    between atoms: O2_2  and  C8_13 
REMARK    2  A    between atoms: O3_3  and  C9_14 
REMARK    3  A    between atoms: O4_4  and  C14_19 
REMARK    4  A    between atoms: O5_5  and  C15_20 
REMARK    5  A    between atoms: C1_6  and  C2_7 
REMARK    6  A    between atoms: C1_6  and  C3_8 
REMARK    7  A    between atoms: C2_7  and  C4_9 
REMARK    8  A    between atoms: C4_9  and  C5_10 
ROOT
ATOM      1  C5  UNK     1      41.463  24.552  12.312  1.00  0.00     0.076 A 
ATOM      2  C8  UNK     1      41.984  25.844  12.378  1.00  0.00     0.085 A 
ATOM      3  C9  UNK     1      41.931  23.660  11.346  1.00  0.00     0.085 A 
ATOM      4  C10 UNK     1      42.972  26.245  11.479  1.00  0.00     0.074 A 
ATOM      5  C11 UNK     1      42.919  24.060  10.448  1.00  0.00     0.074 A 
ATOM      6  C14 UNK     1      43.440  25.353  10.513  1.00  0.00     0.071 A 
ENDROOT
BRANCH   1   7
ATOM      7  C4  UNK     1      40.430  24.134  13.253  1.00  0.00     0.165 C 
ATOM      8  O1  UNK     1      40.681  23.295  14.140  1.00  0.00    -0.292 OA
BRANCH   7   9
ATOM      9  C2  UNK     1      39.016  24.730  13.150  1.00  0.00     0.088 C 
BRANCH   9  10
ATOM     10  C1  UNK     1      38.016  23.799  12.462  1.00  0.00     0.046 C 
BRANCH  10  11
ATOM     11  C3  UNK     1      37.071  24.560  11.568  1.00  0.00    -0.058 A 
ATOM     12  C6  UNK     1      36.119  23.867  10.836  1.00  0.00     0.010 A 
ATOM     13  C12 UNK     1      35.243  24.571  10.009  1.00  0.00     0.037 A 
ATOM     14  C15 UNK     1      35.333  25.961   9.921  1.00  0.00     0.065 A 
ATOM     15  C13 UNK     1      36.296  26.646  10.662  1.00  0.00     0.037 A 
ATOM     16  C7  UNK     1      37.170  25.941  11.490  1.00  0.00     0.010 A 
BRANCH  14  17
ATOM     17  O5  UNK     1      34.479  26.648   9.115  1.00  0.00    -0.361 OA
ATOM     18  H14 UNK     1      34.821  27.549   8.987  1.00  0.00     0.217 HD
ENDBRANCH  14  17
ENDBRANCH  10  11
ENDBRANCH   9  10
ENDBRANCH   7   9
ENDBRANCH   1   7
BRANCH   2  19
ATOM     19  O2  UNK     1      41.542  26.732  13.313  1.00  0.00    -0.360 OA
ATOM     20  H11 UNK     1      40.606  26.945  13.168  1.00  0.00     0.217 HD
ENDBRANCH   2  19
BRANCH   3  21
ATOM     21  O3  UNK     1      41.436  22.393  11.265  1.00  0.00    -0.360 OA
ATOM     22  H12 UNK     1      41.515  21.964  12.135  1.00  0.00     0.217 HD
ENDBRANCH   3  21
BRANCH   6  23
ATOM     23  O4  UNK     1      44.404  25.744   9.636  1.00  0.00    -0.361 OA
ATOM     24  H13 UNK     1      44.569  26.695   9.752  1.00  0.00     0.217 HD
ENDBRANCH   6  23
TORSDOF 8
ENDMDL
MODEL 12
REMARK VINA RESULT:      -5.6      4.368      6.822
REMARK  8 active torsions:
REMARK  status: ('A' for Active; 'I' for Inactive)
REMARK    1  A    between atoms: O2_2  and  C8_13 
REMARK    2  A    between atoms: O3_3  and  C9_14 
REMARK    3  A    between atoms: O4_4  and  C14_19 
REMARK    4  A    between atoms: O5_5  and  C15_20 
REMARK    5  A    between atoms: C1_6  and  C2_7 
REMARK    6  A    between atoms: C1_6  and  C3_8 
REMARK    7  A    between atoms: C2_7  and  C4_9 
REMARK    8  A    between atoms: C4_9  and  C5_10 
ROOT
ATOM      1  C5  UNK     1      37.251  24.988  11.891  1.00  0.00     0.076 A 
ATOM      2  C8  UNK     1      36.227  24.247  11.301  1.00  0.00     0.085 A 
ATOM      3  C9  UNK     1      37.448  26.319  11.525  1.00  0.00     0.085 A 
ATOM      4  C10 UNK     1      35.400  24.837  10.345  1.00  0.00     0.074 A 
ATOM      5  C11 UNK     1      36.622  26.910  10.570  1.00  0.00     0.074 A 
ATOM      6  C14 UNK     1      35.597  26.169   9.979  1.00  0.00     0.071 A 
ENDROOT
BRANCH   1   7
ATOM      7  C4  UNK     1      38.115  24.370  12.891  1.00  0.00     0.165 C 
ATOM      8  O1  UNK     1      37.944  24.596  14.104  1.00  0.00    -0.292 OA
BRANCH   7   9
ATOM      9  C2  UNK     1      39.249  23.431  12.446  1.00  0.00     0.088 C 
BRANCH   9  10
ATOM     10  C1  UNK     1      40.581  23.723  13.139  1.00  0.00     0.046 C 
BRANCH  10  11
ATOM     11  C3  UNK     1      41.599  24.283  12.178  1.00  0.00    -0.058 A 
ATOM     12  C6  UNK     1      41.984  25.610  12.290  1.00  0.00     0.010 A 
ATOM     13  C12 UNK     1      42.926  26.128  11.401  1.00  0.00     0.037 A 
ATOM     14  C15 UNK     1      43.471  25.312  10.408  1.00  0.00     0.065 A 
ATOM     15  C13 UNK     1      43.074  23.978  10.306  1.00  0.00     0.037 A 
ATOM     16  C7  UNK     1      42.133  23.461  11.196  1.00  0.00     0.010 A 
BRANCH  14  17
ATOM     17  O5  UNK     1      44.390  25.816   9.542  1.00  0.00    -0.361 OA
ATOM     18  H14 UNK     1      44.610  26.725   9.809  1.00  0.00     0.217 HD
ENDBRANCH  14  17
ENDBRANCH  10  11
ENDBRANCH   9  10
ENDBRANCH   7   9
ENDBRANCH   1   7
BRANCH   2  19
ATOM     19  O2  UNK     1      36.016  22.945  11.644  1.00  0.00    -0.360 OA
ATOM     20  H11 UNK     1      36.834  22.542  11.977  1.00  0.00     0.217 HD
ENDBRANCH   2  19
BRANCH   3  21
ATOM     21  O3  UNK     1      38.443  27.062  12.090  1.00  0.00    -0.360 OA
ATOM     22  H12 UNK     1      38.142  27.983  12.177  1.00  0.00     0.217 HD
ENDBRANCH   3  21
BRANCH   6  23
ATOM     23  O4  UNK     1      34.791  26.745   9.047  1.00  0.00    -0.361 OA
ATOM     24  H13 UNK     1      35.282  27.459   8.604  1.00  0.00     0.217 HD
ENDBRANCH   6  23
TORSDOF 8
ENDMDL
MODEL 13
REMARK VINA RESULT:      -5.5      1.700      7.236
REMARK  8 active torsions:
REMARK  status: ('A' for Active; 'I' for Inactive)
REMARK    1  A    between atoms: O2_2  and  C8_13 
REMARK    2  A    between atoms: O3_3  and  C9_14 
REMARK    3  A    between atoms: O4_4  and  C14_19 
REMARK    4  A    between atoms: O5_5  and  C15_20 
REMARK    5  A    between atoms: C1_6  and  C2_7 
REMARK    6  A    between atoms: C1_6  and  C3_8 
REMARK    7  A    between atoms: C2_7  and  C4_9 
REMARK    8  A    between atoms: C4_9  and  C5_10 
ROOT
ATOM      1  C5  UNK     1      42.257  23.801  11.325  1.00  0.00     0.076 A 
ATOM      2  C8  UNK     1      43.392  24.368  10.743  1.00  0.00     0.085 A 
ATOM      3  C9  UNK     1      41.460  24.561  12.181  1.00  0.00     0.085 A 
ATOM      4  C10 UNK     1      43.728  25.693  11.017  1.00  0.00     0.074 A 
ATOM      5  C11 UNK     1      41.796  25.886  12.455  1.00  0.00     0.074 A 
ATOM      6  C14 UNK     1      42.931  26.452  11.873  1.00  0.00     0.071 A 
ENDROOT
BRANCH   1   7
ATOM      7  C4  UNK     1      41.906  22.415  11.037  1.00  0.00     0.165 C 
ATOM      8  O1  UNK     1      40.908  22.145  10.340  1.00  0.00    -0.292 OA
BRANCH   7   9
ATOM      9  C2  UNK     1      42.770  21.274  11.599  1.00  0.00     0.088 C 
BRANCH   9  10
ATOM     10  C1  UNK     1      42.701  19.995  10.762  1.00  0.00     0.046 C 
BRANCH  10  11
ATOM     11  C3  UNK     1      42.238  18.818  11.582  1.00  0.00    -0.058 A 
ATOM     12  C6  UNK     1      43.047  17.696  11.682  1.00  0.00     0.010 A 
ATOM     13  C12 UNK     1      42.618  16.607  12.441  1.00  0.00     0.037 A 
ATOM     14  C15 UNK     1      41.384  16.652  13.090  1.00  0.00     0.065 A 
ATOM     15  C13 UNK     1      40.579  17.786  12.981  1.00  0.00     0.037 A 
ATOM     16  C7  UNK     1      41.009  18.875  12.222  1.00  0.00     0.010 A 
BRANCH  14  17
ATOM     17  O5  UNK     1      40.966  15.590  13.831  1.00  0.00    -0.361 OA
ATOM     18  H14 UNK     1      40.117  15.274  13.479  1.00  0.00     0.217 HD
ENDBRANCH  14  17
ENDBRANCH  10  11
ENDBRANCH   9  10
ENDBRANCH   7   9
ENDBRANCH   1   7
BRANCH   2  19
ATOM     19  O2  UNK     1      44.185  23.644   9.903  1.00  0.00    -0.360 OA
ATOM     20  H11 UNK     1      43.771  23.558   9.030  1.00  0.00     0.217 HD
ENDBRANCH   2  19
BRANCH   3  21
ATOM     21  O3  UNK     1      40.346  24.027  12.759  1.00  0.00    -0.360 OA
ATOM     22  H12 UNK     1      40.096  23.218  12.280  1.00  0.00     0.217 HD
ENDBRANCH   3  21
BRANCH   6  23
ATOM     23  O4  UNK     1      43.259  27.745  12.142  1.00  0.00    -0.361 OA
ATOM     24  H13 UNK     1      43.787  28.096  11.403  1.00  0.00     0.217 HD
ENDBRANCH   6  23
TORSDOF 8
ENDMDL
MODEL 14
REMARK VINA RESULT:      -5.5      1.692      7.394
REMARK  8 active torsions:
REMARK  status: ('A' for Active; 'I' for Inactive)
REMARK    1  A    between atoms: O2_2  and  C8_13 
REMARK    2  A    between atoms: O3_3  and  C9_14 
REMARK    3  A    between atoms: O4_4  and  C14_19 
REMARK    4  A    between atoms: O5_5  and  C15_20 
REMARK    5  A    between atoms: C1_6  and  C2_7 
REMARK    6  A    between atoms: C1_6  and  C3_8 
REMARK    7  A    between atoms: C2_7  and  C4_9 
REMARK    8  A    between atoms: C4_9  and  C5_10 
ROOT
ATOM      1  C5  UNK     1      42.251  23.822  11.308  1.00  0.00     0.076 A 
ATOM      2  C8  UNK     1      41.459  24.561  12.186  1.00  0.00     0.085 A 
ATOM      3  C9  UNK     1      43.376  24.405  10.725  1.00  0.00     0.085 A 
ATOM      4  C10 UNK     1      41.791  25.884  12.480  1.00  0.00     0.074 A 
ATOM      5  C11 UNK     1      43.709  25.727  11.019  1.00  0.00     0.074 A 
ATOM      6  C14 UNK     1      42.915  26.467  11.897  1.00  0.00     0.071 A 
ENDROOT
BRANCH   1   7
ATOM      7  C4  UNK     1      41.903  22.439  11.002  1.00  0.00     0.165 C 
ATOM      8  O1  UNK     1      40.875  22.172  10.349  1.00  0.00    -0.292 OA
BRANCH   7   9
ATOM      9  C2  UNK     1      42.810  21.296  11.489  1.00  0.00     0.088 C 
BRANCH   9  10
ATOM     10  C1  UNK     1      42.635  20.003  10.690  1.00  0.00     0.046 C 
BRANCH  10  11
ATOM     11  C3  UNK     1      42.217  18.855  11.574  1.00  0.00    -0.058 A 
ATOM     12  C6  UNK     1      41.016  18.927  12.262  1.00  0.00     0.010 A 
ATOM     13  C12 UNK     1      40.629  17.864  13.079  1.00  0.00     0.037 A 
ATOM     14  C15 UNK     1      41.451  16.742  13.200  1.00  0.00     0.065 A 
ATOM     15  C13 UNK     1      42.658  16.684  12.502  1.00  0.00     0.037 A 
ATOM     16  C7  UNK     1      43.043  17.746  11.685  1.00  0.00     0.010 A 
BRANCH  14  17
ATOM     17  O5  UNK     1      41.073  15.706  13.996  1.00  0.00    -0.361 OA
ATOM     18  H14 UNK     1      41.868  15.295  14.377  1.00  0.00     0.217 HD
ENDBRANCH  14  17
ENDBRANCH  10  11
ENDBRANCH   9  10
ENDBRANCH   7   9
ENDBRANCH   1   7
BRANCH   2  19
ATOM     19  O2  UNK     1      40.355  24.011  12.768  1.00  0.00    -0.360 OA
ATOM     20  H11 UNK     1      39.548  24.448  12.453  1.00  0.00     0.217 HD
ENDBRANCH   2  19
BRANCH   3  21
ATOM     21  O3  UNK     1      44.165  23.700   9.865  1.00  0.00    -0.360 OA
ATOM     22  H12 UNK     1      44.846  24.291   9.501  1.00  0.00     0.217 HD
ENDBRANCH   3  21
BRANCH   6  23
ATOM     23  O4  UNK     1      43.239  27.757  12.183  1.00  0.00    -0.361 OA
ATOM     24  H13 UNK     1      44.204  27.823  12.290  1.00  0.00     0.217 HD
ENDBRANCH   6  23
TORSDOF 8
ENDMDL
MODEL 15
REMARK VINA RESULT:      -5.5      3.511      5.081
REMARK  8 active torsions:
REMARK  status: ('A' for Active; 'I' for Inactive)
REMARK    1  A    between atoms: O2_2  and  C8_13 
REMARK    2  A    between atoms: O3_3  and  C9_14 
REMARK    3  A    between atoms: O4_4  and  C14_19 
REMARK    4  A    between atoms: O5_5  and  C15_20 
REMARK    5  A    between atoms: C1_6  and  C2_7 
REMARK    6  A    between atoms: C1_6  and  C3_8 
REMARK    7  A    between atoms: C2_7  and  C4_9 
REMARK    8  A    between atoms: C4_9  and  C5_10 
ROOT
ATOM      1  C5  UNK     1      41.801  21.069  10.971  1.00  0.00     0.076 A 
ATOM      2  C8  UNK     1      42.710  20.089  10.576  1.00  0.00     0.085 A 
ATOM      3  C9  UNK     1      42.232  22.382  11.166  1.00  0.00     0.085 A 
ATOM      4  C10 UNK     1      44.050  20.419  10.375  1.00  0.00     0.074 A 
ATOM      5  C11 UNK     1      43.571  22.713  10.965  1.00  0.00     0.074 A 
ATOM      6  C14 UNK     1      44.481  21.731  10.569  1.00  0.00     0.071 A 
ENDROOT
BRANCH   1   7
ATOM      7  C4  UNK     1      40.400  20.722  11.180  1.00  0.00     0.165 C 
ATOM      8  O1  UNK     1      40.056  20.032  12.159  1.00  0.00    -0.292 OA
BRANCH   7   9
ATOM      9  C2  UNK     1      39.334  21.210  10.184  1.00  0.00     0.088 C 
BRANCH   9  10
ATOM     10  C1  UNK     1      37.913  21.168  10.750  1.00  0.00     0.046 C 
BRANCH  10  11
ATOM     11  C3  UNK     1      37.326  22.550  10.882  1.00  0.00    -0.058 A 
ATOM     12  C6  UNK     1      37.816  23.409  11.854  1.00  0.00     0.010 A 
ATOM     13  C12 UNK     1      37.272  24.688  11.976  1.00  0.00     0.037 A 
ATOM     14  C15 UNK     1      36.243  25.093  11.125  1.00  0.00     0.065 A 
ATOM     15  C13 UNK     1      35.759  24.218  10.151  1.00  0.00     0.037 A 
ATOM     16  C7  UNK     1      36.303  22.940  10.029  1.00  0.00     0.010 A 
BRANCH  14  17
ATOM     17  O5  UNK     1      35.714  26.340  11.243  1.00  0.00    -0.361 OA
ATOM     18  H14 UNK     1      36.433  26.993  11.200  1.00  0.00     0.217 HD
ENDBRANCH  14  17
ENDBRANCH  10  11
ENDBRANCH   9  10
ENDBRANCH   7   9
ENDBRANCH   1   7
BRANCH   2  19
ATOM     19  O2  UNK     1      42.310  18.800  10.379  1.00  0.00    -0.360 OA
ATOM     20  H11 UNK     1      42.819  18.194  10.942  1.00  0.00     0.217 HD
ENDBRANCH   2  19
BRANCH   3  21
ATOM     21  O3  UNK     1      41.359  23.356  11.551  1.00  0.00    -0.360 OA
ATOM     22  H12 UNK     1      41.626  24.200  11.147  1.00  0.00     0.217 HD
ENDBRANCH   3  21
BRANCH   6  23
ATOM     23  O4  UNK     1      45.788  22.055  10.374  1.00  0.00    -0.361 OA
ATOM     24  H13 UNK     1      45.836  22.907   9.908  1.00  0.00     0.217 HD
ENDBRANCH   6  23
TORSDOF 8
ENDMDL
MODEL 16
REMARK VINA RESULT:      -5.5      3.509      5.207
REMARK  8 active torsions:
REMARK  status: ('A' for Active; 'I' for Inactive)
REMARK    1  A    between atoms: O2_2  and  C8_13 
REMARK    2  A    between atoms: O3_3  and  C9_14 
REMARK    3  A    between atoms: O4_4  and  C14_19 
REMARK    4  A    between atoms: O5_5  and  C15_20 
REMARK    5  A    between atoms: C1_6  and  C2_7 
REMARK    6  A    between atoms: C1_6  and  C3_8 
REMARK    7  A    between atoms: C2_7  and  C4_9 
REMARK    8  A    between atoms: C4_9  and  C5_10 
ROOT
ATOM      1  C5  UNK     1      41.839  21.079  10.966  1.00  0.00     0.076 A 
ATOM      2  C8  UNK     1      42.287  22.386  11.156  1.00  0.00     0.085 A 
ATOM      3  C9  UNK     1      42.736  20.084  10.576  1.00  0.00     0.085 A 
ATOM      4  C10 UNK     1      43.632  22.698  10.955  1.00  0.00     0.074 A 
ATOM      5  C11 UNK     1      44.080  20.396  10.375  1.00  0.00     0.074 A 
ATOM      6  C14 UNK     1      44.528  21.704  10.565  1.00  0.00     0.071 A 
ENDROOT
BRANCH   1   7
ATOM      7  C4  UNK     1      40.433  20.753  11.177  1.00  0.00     0.165 C 
ATOM      8  O1  UNK     1      40.077  20.087  12.168  1.00  0.00    -0.292 OA
BRANCH   7   9
ATOM      9  C2  UNK     1      39.377  21.232  10.166  1.00  0.00     0.088 C 
BRANCH   9  10
ATOM     10  C1  UNK     1      37.949  21.171  10.711  1.00  0.00     0.046 C 
BRANCH  10  11
ATOM     11  C3  UNK     1      37.350  22.547  10.857  1.00  0.00    -0.058 A 
ATOM     12  C6  UNK     1      37.854  23.412  11.816  1.00  0.00     0.010 A 
ATOM     13  C12 UNK     1      37.300  24.685  11.951  1.00  0.00     0.037 A 
ATOM     14  C15 UNK     1      36.245  25.078  11.125  1.00  0.00     0.065 A 
ATOM     15  C13 UNK     1      35.747  24.197  10.164  1.00  0.00     0.037 A 
ATOM     16  C7  UNK     1      36.302  22.925  10.029  1.00  0.00     0.010 A 
BRANCH  14  17
ATOM     17  O5  UNK     1      35.706  26.319  11.256  1.00  0.00    -0.361 OA
ATOM     18  H14 UNK     1      36.188  26.936  10.679  1.00  0.00     0.217 HD
ENDBRANCH  14  17
ENDBRANCH  10  11
ENDBRANCH   9  10
ENDBRANCH   7   9
ENDBRANCH   1   7
BRANCH   2  19
ATOM     19  O2  UNK     1      41.429  23.373  11.538  1.00  0.00    -0.360 OA
ATOM     20  H11 UNK     1      41.182  23.925  10.779  1.00  0.00     0.217 HD
ENDBRANCH   2  19
BRANCH   3  21
ATOM     21  O3  UNK     1      42.318  18.800  10.385  1.00  0.00    -0.360 OA
ATOM     22  H12 UNK     1      41.599  18.603  11.011  1.00  0.00     0.217 HD
ENDBRANCH   3  21
BRANCH   6  23
ATOM     23  O4  UNK     1      45.840  22.008  10.368  1.00  0.00    -0.361 OA
ATOM     24  H13 UNK     1      45.898  22.825   9.843  1.00  0.00     0.217 HD
ENDBRANCH   6  23
TORSDOF 8
ENDMDL
MODEL 17
REMARK VINA RESULT:      -5.5      4.655      6.931
REMARK  8 active torsions:
REMARK  status: ('A' for Active; 'I' for Inactive)
REMARK    1  A    between atoms: O2_2  and  C8_13 
REMARK    2  A    between atoms: O3_3  and  C9_14 
REMARK    3  A    between atoms: O4_4  and  C14_19 
REMARK    4  A    between atoms: O5_5  and  C15_20 
REMARK    5  A    between atoms: C1_6  and  C2_7 
REMARK    6  A    between atoms: C1_6  and  C3_8 
REMARK    7  A    between atoms: C2_7  and  C4_9 
REMARK    8  A    between atoms: C4_9  and  C5_10 
ROOT
ATOM      1  C5  UNK     1      37.128  25.233  12.000  1.00  0.00     0.076 A 
ATOM      2  C8  UNK     1      37.410  26.514  11.524  1.00  0.00     0.085 A 
ATOM      3  C9  UNK     1      36.098  24.488  11.427  1.00  0.00     0.085 A 
ATOM      4  C10 UNK     1      36.662  27.049  10.476  1.00  0.00     0.074 A 
ATOM      5  C11 UNK     1      35.350  25.023  10.379  1.00  0.00     0.074 A 
ATOM      6  C14 UNK     1      35.632  26.304   9.903  1.00  0.00     0.071 A 
ENDROOT
BRANCH   1   7
ATOM      7  C4  UNK     1      37.911  24.674  13.096  1.00  0.00     0.165 C 
ATOM      8  O1  UNK     1      37.503  24.749  14.271  1.00  0.00    -0.292 OA
BRANCH   7   9
ATOM      9  C2  UNK     1      39.256  23.988  12.803  1.00  0.00     0.088 C 
BRANCH   9  10
ATOM     10  C1  UNK     1      40.450  24.699  13.445  1.00  0.00     0.046 C 
BRANCH  10  11
ATOM     11  C3  UNK     1      41.526  25.003  12.434  1.00  0.00    -0.058 A 
ATOM     12  C6  UNK     1      42.026  23.981  11.642  1.00  0.00     0.010 A 
ATOM     13  C12 UNK     1      43.022  24.263  10.707  1.00  0.00     0.037 A 
ATOM     14  C15 UNK     1      43.508  25.565  10.576  1.00  0.00     0.065 A 
ATOM     15  C13 UNK     1      42.997  26.584  11.380  1.00  0.00     0.037 A 
ATOM     16  C7  UNK     1      42.000  26.302  12.314  1.00  0.00     0.010 A 
BRANCH  14  17
ATOM     17  O5  UNK     1      44.478  25.840   9.663  1.00  0.00    -0.361 OA
ATOM     18  H14 UNK     1      45.199  25.195   9.764  1.00  0.00     0.217 HD
ENDBRANCH  14  17
ENDBRANCH  10  11
ENDBRANCH   9  10
ENDBRANCH   7   9
ENDBRANCH   1   7
BRANCH   2  19
ATOM     19  O2  UNK     1      38.413  27.259  12.070  1.00  0.00    -0.360 OA
ATOM     20  H11 UNK     1      39.218  27.197  11.531  1.00  0.00     0.217 HD
ENDBRANCH   2  19
BRANCH   3  21
ATOM     21  O3  UNK     1      35.806  23.234  11.876  1.00  0.00    -0.360 OA
ATOM     22  H12 UNK     1      34.851  23.173  12.051  1.00  0.00     0.217 HD
ENDBRANCH   3  21
BRANCH   6  23
ATOM     23  O4  UNK     1      34.901  26.826   8.881  1.00  0.00    -0.361 OA
ATOM     24  H13 UNK     1      35.189  27.742   8.723  1.00  0.00     0.217 HD
ENDBRANCH   6  23
TORSDOF 8
ENDMDL
MODEL 18
REMARK VINA RESULT:      -5.5      4.287      6.671
REMARK  8 active torsions:
REMARK  status: ('A' for Active; 'I' for Inactive)
REMARK    1  A    between atoms: O2_2  and  C8_13 
REMARK    2  A    between atoms: O3_3  and  C9_14 
REMARK    3  A    between atoms: O4_4  and  C14_19 
REMARK    4  A    between atoms: O5_5  and  C15_20 
REMARK    5  A    between atoms: C1_6  and  C2_7 
REMARK    6  A    between atoms: C1_6  and  C3_8 
REMARK    7  A    between atoms: C2_7  and  C4_9 
REMARK    8  A    between atoms: C4_9  and  C5_10 
ROOT
ATOM      1  C5  UNK     1      43.039  25.905  12.472  1.00  0.00     0.076 A 
ATOM      2  C8  UNK     1      43.386  25.999  11.124  1.00  0.00     0.085 A 
ATOM      3  C9  UNK     1      43.064  24.666  13.113  1.00  0.00     0.085 A 
ATOM      4  C10 UNK     1      43.757  24.855  10.418  1.00  0.00     0.074 A 
ATOM      5  C11 UNK     1      43.435  23.522  12.407  1.00  0.00     0.074 A 
ATOM      6  C14 UNK     1      43.782  23.617  11.059  1.00  0.00     0.071 A 
ENDROOT
BRANCH   1   7
ATOM      7  C4  UNK     1      42.651  27.102  13.210  1.00  0.00     0.165 C 
ATOM      8  O1  UNK     1      43.496  27.971  13.498  1.00  0.00    -0.292 OA
BRANCH   7   9
ATOM      9  C2  UNK     1      41.188  27.294  13.641  1.00  0.00     0.088 C 
BRANCH   9  10
ATOM     10  C1  UNK     1      40.313  27.913  12.549  1.00  0.00     0.046 C 
BRANCH  10  11
ATOM     11  C3  UNK     1      39.145  27.025  12.201  1.00  0.00    -0.058 A 
ATOM     12  C6  UNK     1      38.100  27.538  11.449  1.00  0.00     0.010 A 
ATOM     13  C12 UNK     1      37.019  26.717  11.126  1.00  0.00     0.037 A 
ATOM     14  C15 UNK     1      36.997  25.391  11.561  1.00  0.00     0.065 A 
ATOM     15  C13 UNK     1      38.055  24.887  12.317  1.00  0.00     0.037 A 
ATOM     16  C7  UNK     1      39.136  25.709  12.639  1.00  0.00     0.010 A 
BRANCH  14  17
ATOM     17  O5  UNK     1      35.944  24.589  11.245  1.00  0.00    -0.361 OA
ATOM     18  H14 UNK     1      36.218  23.661  11.331  1.00  0.00     0.217 HD
ENDBRANCH  14  17
ENDBRANCH  10  11
ENDBRANCH   9  10
ENDBRANCH   7   9
ENDBRANCH   1   7
BRANCH   2  19
ATOM     19  O2  UNK     1      43.368  27.199  10.478  1.00  0.00    -0.360 OA
ATOM     20  H11 UNK     1      44.262  27.446  10.189  1.00  0.00     0.217 HD
ENDBRANCH   2  19
BRANCH   3  21
ATOM     21  O3  UNK     1      42.730  24.552  14.430  1.00  0.00    -0.360 OA
ATOM     22  H12 UNK     1      43.023  23.684  14.759  1.00  0.00     0.217 HD
ENDBRANCH   3  21
BRANCH   6  23
ATOM     23  O4  UNK     1      44.143  22.501  10.370  1.00  0.00    -0.361 OA
ATOM     24  H13 UNK     1      43.362  22.146   9.912  1.00  0.00     0.217 HD
ENDBRANCH   6  23
TORSDOF 8
ENDMDL
MODEL 19
REMARK VINA RESULT:      -5.4      4.065      5.275
REMARK  8 active torsions:
REMARK  status: ('A' for Active; 'I' for Inactive)
REMARK    1  A    between atoms: O2_2  and  C8_13 
REMARK    2  A    between atoms: O3_3  and  C9_14 
REMARK    3  A    between atoms: O4_4  and  C14_19 
REMARK    4  A    between atoms: O5_5  and  C15_20 
REMARK    5  A    between atoms: C1_6  and  C2_7 
REMARK    6  A    between atoms: C1_6  and  C3_8 
REMARK    7  A    between atoms: C2_7  and  C4_9 
REMARK    8  A    between atoms: C4_9  and  C5_10 
ROOT
ATOM      1  C5  UNK     1      38.859  20.872  11.961  1.00  0.00     0.076 A 
ATOM      2  C8  UNK     1      39.063  20.979  10.585  1.00  0.00     0.085 A 
ATOM      3  C9  UNK     1      39.887  20.415  12.784  1.00  0.00     0.085 A 
ATOM      4  C10 UNK     1      40.295  20.628  10.033  1.00  0.00     0.074 A 
ATOM      5  C11 UNK     1      41.119  20.064  12.233  1.00  0.00     0.074 A 
ATOM      6  C14 UNK     1      41.323  20.170  10.857  1.00  0.00     0.071 A 
ENDROOT
BRANCH   1   7
ATOM      7  C4  UNK     1      37.570  21.240  12.537  1.00  0.00     0.165 C 
ATOM      8  O1  UNK     1      36.621  20.433  12.537  1.00  0.00    -0.292 OA
BRANCH   7   9
ATOM      9  C2  UNK     1      37.377  22.638  13.148  1.00  0.00     0.088 C 
BRANCH   9  10
ATOM     10  C1  UNK     1      38.075  23.746  12.356  1.00  0.00     0.046 C 
BRANCH  10  11
ATOM     11  C3  UNK     1      37.099  24.529  11.515  1.00  0.00    -0.058 A 
ATOM     12  C6  UNK     1      37.195  25.911  11.470  1.00  0.00     0.010 A 
ATOM     13  C12 UNK     1      36.292  26.636  10.692  1.00  0.00     0.037 A 
ATOM     14  C15 UNK     1      35.302  25.969   9.969  1.00  0.00     0.065 A 
ATOM     15  C13 UNK     1      35.217  24.578  10.024  1.00  0.00     0.037 A 
ATOM     16  C7  UNK     1      36.120  23.854  10.801  1.00  0.00     0.010 A 
BRANCH  14  17
ATOM     17  O5  UNK     1      34.423  26.676   9.209  1.00  0.00    -0.361 OA
ATOM     18  H14 UNK     1      34.018  27.370   9.757  1.00  0.00     0.217 HD
ENDBRANCH  14  17
ENDBRANCH  10  11
ENDBRANCH   9  10
ENDBRANCH   7   9
ENDBRANCH   1   7
BRANCH   2  19
ATOM     19  O2  UNK     1      38.072  21.424   9.761  1.00  0.00    -0.360 OA
ATOM     20  H11 UNK     1      38.101  22.391   9.682  1.00  0.00     0.217 HD
ENDBRANCH   2  19
BRANCH   3  21
ATOM     21  O3  UNK     1      39.709  20.304  14.132  1.00  0.00    -0.360 OA
ATOM     22  H12 UNK     1      39.037  19.623  14.309  1.00  0.00     0.217 HD
ENDBRANCH   3  21
BRANCH   6  23
ATOM     23  O4  UNK     1      42.525  19.827  10.319  1.00  0.00    -0.361 OA
ATOM     24  H13 UNK     1      43.223  19.993  10.976  1.00  0.00     0.217 HD
ENDBRANCH   6  23
TORSDOF 8
ENDMDL
