MODEL 1
REMARK VINA RESULT:      -7.9      0.000      0.000
REMARK  4 active torsions:
REMARK  status: ('A' for Active; 'I' for Inactive)
REMARK    1  A    between atoms: O2_2  and  C7_12 
REMARK    2  A    between atoms: O4_4  and  C9_14 
REMARK    3  A    between atoms: O5_5  and  C15_20 
REMARK    4  A    between atoms: C3_8  and  C4_9 
ROOT
ATOM      1  O1  UNK     1      39.748  15.507  -0.057  1.00  0.00    -0.309 OA
ATOM      2  O3  UNK     1      41.218  16.428  -3.743  1.00  0.00    -0.287 OA
ATOM      3  C1  UNK     1      40.042  17.147  -1.824  1.00  0.00     0.081 A 
ATOM      4  C2  UNK     1      39.567  16.766  -0.571  1.00  0.00     0.095 A 
ATOM      5  C3  UNK     1      40.426  14.571  -0.824  1.00  0.00     0.090 A 
ATOM      6  C5  UNK     1      40.772  16.161  -2.636  1.00  0.00     0.190 A 
ATOM      7  C6  UNK     1      40.938  14.819  -2.040  1.00  0.00     0.094 A 
ATOM      8  C7  UNK     1      39.830  18.444  -2.296  1.00  0.00     0.085 A 
ATOM      9  C8  UNK     1      38.874  17.682   0.221  1.00  0.00     0.075 A 
ATOM     10  C9  UNK     1      38.659  18.979  -0.247  1.00  0.00     0.071 A 
ATOM     11  C10 UNK     1      39.136  19.359  -1.503  1.00  0.00     0.074 A 
ENDROOT
BRANCH   5  12
ATOM     12  C4  UNK     1      40.569  13.254  -0.174  1.00  0.00    -0.002 A 
ATOM     13  C12 UNK     1      40.248  13.097   1.176  1.00  0.00     0.017 A 
ATOM     14  C14 UNK     1      40.384  11.852   1.789  1.00  0.00     0.037 A 
ATOM     15  C15 UNK     1      40.842  10.758   1.054  1.00  0.00     0.065 A 
ATOM     16  C13 UNK     1      41.165  10.911  -0.294  1.00  0.00     0.037 A 
ATOM     17  C11 UNK     1      41.028  12.156  -0.908  1.00  0.00     0.017 A 
BRANCH  15  18
ATOM     18  O5  UNK     1      40.975   9.544   1.653  1.00  0.00    -0.361 OA
ATOM     19  H10 UNK     1      41.791   9.123   1.332  1.00  0.00     0.217 HD
ENDBRANCH  15  18
ENDBRANCH   5  12
BRANCH   8  20
ATOM     20  O2  UNK     1      40.274  18.865  -3.513  1.00  0.00    -0.360 OA
ATOM     21  H8  UNK     1      41.182  18.559  -3.667  1.00  0.00     0.217 HD
ENDBRANCH   8  20
BRANCH  10  22
ATOM     22  O4  UNK     1      37.984  19.876   0.523  1.00  0.00    -0.361 OA
ATOM     23  H9  UNK     1      38.275  20.775   0.290  1.00  0.00     0.217 HD
ENDBRANCH  10  22
TORSDOF 4
ENDMDL
MODEL 2
REMARK VINA RESULT:      -7.9      0.005      1.080
REMARK  4 active torsions:
REMARK  status: ('A' for Active; 'I' for Inactive)
REMARK    1  A    between atoms: O2_2  and  C7_12 
REMARK    2  A    between atoms: O4_4  and  C9_14 
REMARK    3  A    between atoms: O5_5  and  C15_20 
REMARK    4  A    between atoms: C3_8  and  C4_9 
ROOT
ATOM      1  O1  UNK     1      39.750  15.508  -0.058  1.00  0.00    -0.309 OA
ATOM      2  O3  UNK     1      41.212  16.432  -3.747  1.00  0.00    -0.287 OA
ATOM      3  C1  UNK     1      40.040  17.149  -1.825  1.00  0.00     0.081 A 
ATOM      4  C2  UNK     1      39.567  16.767  -0.571  1.00  0.00     0.095 A 
ATOM      5  C3  UNK     1      40.428  14.573  -0.827  1.00  0.00     0.090 A 
ATOM      6  C5  UNK     1      40.768  16.164  -2.640  1.00  0.00     0.190 A 
ATOM      7  C6  UNK     1      40.937  14.822  -2.044  1.00  0.00     0.094 A 
ATOM      8  C7  UNK     1      39.825  18.446  -2.296  1.00  0.00     0.085 A 
ATOM      9  C8  UNK     1      38.876  17.682   0.222  1.00  0.00     0.075 A 
ATOM     10  C9  UNK     1      38.658  18.979  -0.244  1.00  0.00     0.071 A 
ATOM     11  C10 UNK     1      39.132  19.360  -1.502  1.00  0.00     0.074 A 
ENDROOT
BRANCH   5  12
ATOM     12  C4  UNK     1      40.574  13.255  -0.179  1.00  0.00    -0.002 A 
ATOM     13  C12 UNK     1      41.031  12.158  -0.913  1.00  0.00     0.017 A 
ATOM     14  C14 UNK     1      41.167  10.913  -0.300  1.00  0.00     0.037 A 
ATOM     15  C15 UNK     1      40.847  10.760   1.050  1.00  0.00     0.065 A 
ATOM     16  C13 UNK     1      40.389  11.853   1.785  1.00  0.00     0.037 A 
ATOM     17  C11 UNK     1      40.253  13.099   1.173  1.00  0.00     0.017 A 
BRANCH  15  18
ATOM     18  O5  UNK     1      40.979   9.545   1.647  1.00  0.00    -0.361 OA
ATOM     19  H10 UNK     1      40.348   9.486   2.384  1.00  0.00     0.217 HD
ENDBRANCH  15  18
ENDBRANCH   5  12
BRANCH   8  20
ATOM     20  O2  UNK     1      40.267  18.868  -3.513  1.00  0.00    -0.360 OA
ATOM     21  H8  UNK     1      39.747  18.460  -4.223  1.00  0.00     0.217 HD
ENDBRANCH   8  20
BRANCH  10  22
ATOM     22  O4  UNK     1      37.983  19.875   0.528  1.00  0.00    -0.361 OA
ATOM     23  H9  UNK     1      37.041  19.852   0.287  1.00  0.00     0.217 HD
ENDBRANCH  10  22
TORSDOF 4
ENDMDL
MODEL 3
REMARK VINA RESULT:      -7.6      2.385      7.131
REMARK  4 active torsions:
REMARK  status: ('A' for Active; 'I' for Inactive)
REMARK    1  A    between atoms: O2_2  and  C7_12 
REMARK    2  A    between atoms: O4_4  and  C9_14 
REMARK    3  A    between atoms: O5_5  and  C15_20 
REMARK    4  A    between atoms: C3_8  and  C4_9 
ROOT
ATOM      1  O1  UNK     1      40.337  16.990  -1.127  1.00  0.00    -0.309 OA
ATOM      2  O3  UNK     1      36.868  14.903  -0.667  1.00  0.00    -0.287 OA
ATOM      3  C1  UNK     1      39.185  14.852  -1.131  1.00  0.00     0.081 A 
ATOM      4  C2  UNK     1      40.334  15.625  -1.274  1.00  0.00     0.095 A 
ATOM      5  C3  UNK     1      39.140  17.624  -0.832  1.00  0.00     0.090 A 
ATOM      6  C5  UNK     1      37.914  15.520  -0.809  1.00  0.00     0.190 A 
ATOM      7  C6  UNK     1      37.969  16.989  -0.664  1.00  0.00     0.094 A 
ATOM      8  C7  UNK     1      39.241  13.465  -1.291  1.00  0.00     0.085 A 
ATOM      9  C8  UNK     1      41.552  15.016  -1.577  1.00  0.00     0.075 A 
ATOM     10  C9  UNK     1      41.614  13.631  -1.738  1.00  0.00     0.071 A 
ATOM     11  C10 UNK     1      40.460  12.857  -1.596  1.00  0.00     0.074 A 
ENDROOT
BRANCH   5  12
ATOM     12  C4  UNK     1      39.257  19.089  -0.691  1.00  0.00    -0.002 A 
ATOM     13  C12 UNK     1      39.999  19.827  -1.616  1.00  0.00     0.017 A 
ATOM     14  C14 UNK     1      40.109  21.211  -1.481  1.00  0.00     0.037 A 
ATOM     15  C15 UNK     1      39.479  21.862  -0.421  1.00  0.00     0.065 A 
ATOM     16  C13 UNK     1      38.739  21.128   0.506  1.00  0.00     0.037 A 
ATOM     17  C11 UNK     1      38.627  19.744   0.371  1.00  0.00     0.017 A 
BRANCH  15  18
ATOM     18  O5  UNK     1      39.588  23.211  -0.289  1.00  0.00    -0.361 OA
ATOM     19  H10 UNK     1      40.524  23.461  -0.379  1.00  0.00     0.217 HD
ENDBRANCH  15  18
ENDBRANCH   5  12
BRANCH   8  20
ATOM     20  O2  UNK     1      38.146  12.666  -1.162  1.00  0.00    -0.360 OA
ATOM     21  H8  UNK     1      38.257  12.056  -0.415  1.00  0.00     0.217 HD
ENDBRANCH   8  20
BRANCH  10  22
ATOM     22  O4  UNK     1      42.801  13.033  -2.034  1.00  0.00    -0.361 OA
ATOM     23  H9  UNK     1      42.741  12.636  -2.920  1.00  0.00     0.217 HD
ENDBRANCH  10  22
TORSDOF 4
ENDMDL
MODEL 4
REMARK VINA RESULT:      -7.2      1.494      6.712
REMARK  4 active torsions:
REMARK  status: ('A' for Active; 'I' for Inactive)
REMARK    1  A    between atoms: O2_2  and  C7_12 
REMARK    2  A    between atoms: O4_4  and  C9_14 
REMARK    3  A    between atoms: O5_5  and  C15_20 
REMARK    4  A    between atoms: C3_8  and  C4_9 
ROOT
ATOM      1  O1  UNK     1      39.827  14.315   0.207  1.00  0.00    -0.309 OA
ATOM      2  O3  UNK     1      42.322  12.480  -2.439  1.00  0.00    -0.287 OA
ATOM      3  C1  UNK     1      41.003  12.307  -0.486  1.00  0.00     0.081 A 
ATOM      4  C2  UNK     1      40.156  12.994   0.380  1.00  0.00     0.095 A 
ATOM      5  C3  UNK     1      40.370  14.996  -0.872  1.00  0.00     0.090 A 
ATOM      6  C5  UNK     1      41.574  13.022  -1.638  1.00  0.00     0.190 A 
ATOM      7  C6  UNK     1      41.191  14.442  -1.778  1.00  0.00     0.094 A 
ATOM      8  C7  UNK     1      41.303  10.961  -0.262  1.00  0.00     0.085 A 
ATOM      9  C8  UNK     1      39.600  12.339   1.479  1.00  0.00     0.075 A 
ATOM     10  C9  UNK     1      39.896  10.995   1.707  1.00  0.00     0.071 A 
ATOM     11  C10 UNK     1      40.747  10.307   0.839  1.00  0.00     0.074 A 
ENDROOT
BRANCH   5  12
ATOM     12  C4  UNK     1      39.946  16.407  -0.966  1.00  0.00    -0.002 A 
ATOM     13  C12 UNK     1      40.219  17.146  -2.119  1.00  0.00     0.017 A 
ATOM     14  C14 UNK     1      39.819  18.480  -2.206  1.00  0.00     0.037 A 
ATOM     15  C15 UNK     1      39.145  19.078  -1.142  1.00  0.00     0.065 A 
ATOM     16  C13 UNK     1      38.872  18.342   0.011  1.00  0.00     0.037 A 
ATOM     17  C11 UNK     1      39.271  17.009   0.100  1.00  0.00     0.017 A 
BRANCH  15  18
ATOM     18  O5  UNK     1      38.756  20.379  -1.228  1.00  0.00    -0.361 OA
ATOM     19  H10 UNK     1      39.171  20.880  -0.503  1.00  0.00     0.217 HD
ENDBRANCH  15  18
ENDBRANCH   5  12
BRANCH   8  20
ATOM     20  O2  UNK     1      42.125  10.246  -1.079  1.00  0.00    -0.360 OA
ATOM     21  H8  UNK     1      42.770  10.829  -1.507  1.00  0.00     0.217 HD
ENDBRANCH   8  20
BRANCH  10  22
ATOM     22  O4  UNK     1      39.356  10.352   2.779  1.00  0.00    -0.361 OA
ATOM     23  H9  UNK     1      38.742  10.955   3.233  1.00  0.00     0.217 HD
ENDBRANCH  10  22
TORSDOF 4
ENDMDL
MODEL 5
REMARK VINA RESULT:      -6.9      1.271      2.795
REMARK  4 active torsions:
REMARK  status: ('A' for Active; 'I' for Inactive)
REMARK    1  A    between atoms: O2_2  and  C7_12 
REMARK    2  A    between atoms: O4_4  and  C9_14 
REMARK    3  A    between atoms: O5_5  and  C15_20 
REMARK    4  A    between atoms: C3_8  and  C4_9 
ROOT
ATOM      1  O1  UNK     1      40.606  15.198  -1.939  1.00  0.00    -0.309 OA
ATOM      2  O3  UNK     1      38.901  18.103   0.354  1.00  0.00    -0.287 OA
ATOM      3  C1  UNK     1      39.876  17.504  -1.714  1.00  0.00     0.081 A 
ATOM      4  C2  UNK     1      40.450  16.465  -2.443  1.00  0.00     0.095 A 
ATOM      5  C3  UNK     1      40.182  14.947  -0.642  1.00  0.00     0.090 A 
ATOM      6  C5  UNK     1      39.416  17.239  -0.342  1.00  0.00     0.190 A 
ATOM      7  C6  UNK     1      39.609  15.861   0.156  1.00  0.00     0.094 A 
ATOM      8  C7  UNK     1      39.741  18.774  -2.279  1.00  0.00     0.085 A 
ATOM      9  C8  UNK     1      40.893  16.689  -3.747  1.00  0.00     0.075 A 
ATOM     10  C9  UNK     1      40.760  17.956  -4.316  1.00  0.00     0.071 A 
ATOM     11  C10 UNK     1      40.186  18.997  -3.583  1.00  0.00     0.074 A 
ENDROOT
BRANCH   5  12
ATOM     12  C4  UNK     1      40.392  13.553  -0.203  1.00  0.00    -0.002 A 
ATOM     13  C12 UNK     1      40.068  13.172   1.101  1.00  0.00     0.017 A 
ATOM     14  C14 UNK     1      40.267  11.856   1.516  1.00  0.00     0.037 A 
ATOM     15  C15 UNK     1      40.792  10.916   0.629  1.00  0.00     0.065 A 
ATOM     16  C13 UNK     1      41.117  11.293  -0.673  1.00  0.00     0.037 A 
ATOM     17  C11 UNK     1      40.918  12.609  -1.090  1.00  0.00     0.017 A 
BRANCH  15  18
ATOM     18  O5  UNK     1      40.987   9.632   1.035  1.00  0.00    -0.361 OA
ATOM     19  H10 UNK     1      41.324   9.112   0.285  1.00  0.00     0.217 HD
ENDBRANCH  15  18
ENDBRANCH   5  12
BRANCH   8  20
ATOM     20  O2  UNK     1      39.188  19.822  -1.608  1.00  0.00    -0.360 OA
ATOM     21  H8  UNK     1      38.494  19.511  -1.006  1.00  0.00     0.217 HD
ENDBRANCH   8  20
BRANCH  10  22
ATOM     22  O4  UNK     1      41.192  18.178  -5.588  1.00  0.00    -0.361 OA
ATOM     23  H9  UNK     1      41.409  19.121  -5.687  1.00  0.00     0.217 HD
ENDBRANCH  10  22
TORSDOF 4
ENDMDL
MODEL 6
REMARK VINA RESULT:      -6.1     16.016     17.863
REMARK  4 active torsions:
REMARK  status: ('A' for Active; 'I' for Inactive)
REMARK    1  A    between atoms: O2_2  and  C7_12 
REMARK    2  A    between atoms: O4_4  and  C9_14 
REMARK    3  A    between atoms: O5_5  and  C15_20 
REMARK    4  A    between atoms: C3_8  and  C4_9 
ROOT
ATOM      1  O1  UNK     1      44.218   1.670   7.489  1.00  0.00    -0.309 OA
ATOM      2  O3  UNK     1      45.753   0.661  11.125  1.00  0.00    -0.287 OA
ATOM      3  C1  UNK     1      46.152   1.483   8.946  1.00  0.00     0.081 A 
ATOM      4  C2  UNK     1      45.562   1.810   7.727  1.00  0.00     0.095 A 
ATOM      5  C3  UNK     1      43.415   1.174   8.505  1.00  0.00     0.090 A 
ATOM      6  C5  UNK     1      45.302   0.965  10.030  1.00  0.00     0.190 A 
ATOM      7  C6  UNK     1      43.863   0.831   9.723  1.00  0.00     0.094 A 
ATOM      8  C7  UNK     1      47.526   1.646   9.133  1.00  0.00     0.085 A 
ATOM      9  C8  UNK     1      46.344   2.305   6.684  1.00  0.00     0.075 A 
ATOM     10  C9  UNK     1      47.718   2.470   6.865  1.00  0.00     0.071 A 
ATOM     11  C10 UNK     1      48.308   2.140   8.088  1.00  0.00     0.074 A 
ENDROOT
BRANCH   5  12
ATOM     12  C4  UNK     1      41.987   1.070   8.145  1.00  0.00    -0.002 A 
ATOM     13  C12 UNK     1      41.289  -0.116   8.378  1.00  0.00     0.017 A 
ATOM     14  C14 UNK     1      39.940  -0.214   8.037  1.00  0.00     0.037 A 
ATOM     15  C15 UNK     1      39.285   0.874   7.460  1.00  0.00     0.065 A 
ATOM     16  C13 UNK     1      39.980   2.060   7.225  1.00  0.00     0.037 A 
ATOM     17  C11 UNK     1      41.329   2.159   7.566  1.00  0.00     0.017 A 
BRANCH  15  18
ATOM     18  O5  UNK     1      37.970   0.778   7.127  1.00  0.00    -0.361 OA
ATOM     19  H10 UNK     1      37.432   0.893   7.930  1.00  0.00     0.217 HD
ENDBRANCH  15  18
ENDBRANCH   5  12
BRANCH   8  20
ATOM     20  O2  UNK     1      48.150   1.341  10.304  1.00  0.00    -0.360 OA
ATOM     21  H8  UNK     1      47.498   1.133  10.992  1.00  0.00     0.217 HD
ENDBRANCH   8  20
BRANCH  10  22
ATOM     22  O4  UNK     1      48.485   2.952   5.849  1.00  0.00    -0.361 OA
ATOM     23  H9  UNK     1      49.333   3.262   6.213  1.00  0.00     0.217 HD
ENDBRANCH  10  22
TORSDOF 4
ENDMDL
MODEL 7
REMARK VINA RESULT:      -6.1     16.015     17.860
REMARK  4 active torsions:
REMARK  status: ('A' for Active; 'I' for Inactive)
REMARK    1  A    between atoms: O2_2  and  C7_12 
REMARK    2  A    between atoms: O4_4  and  C9_14 
REMARK    3  A    between atoms: O5_5  and  C15_20 
REMARK    4  A    between atoms: C3_8  and  C4_9 
ROOT
ATOM      1  O1  UNK     1      44.218   1.671   7.488  1.00  0.00    -0.309 OA
ATOM      2  O3  UNK     1      45.750   0.664  11.126  1.00  0.00    -0.287 OA
ATOM      3  C1  UNK     1      46.151   1.484   8.947  1.00  0.00     0.081 A 
ATOM      4  C2  UNK     1      45.562   1.810   7.727  1.00  0.00     0.095 A 
ATOM      5  C3  UNK     1      43.415   1.176   8.504  1.00  0.00     0.090 A 
ATOM      6  C5  UNK     1      45.301   0.967  10.030  1.00  0.00     0.190 A 
ATOM      7  C6  UNK     1      43.862   0.834   9.722  1.00  0.00     0.094 A 
ATOM      8  C7  UNK     1      47.525   1.647   9.134  1.00  0.00     0.085 A 
ATOM      9  C8  UNK     1      46.346   2.304   6.684  1.00  0.00     0.075 A 
ATOM     10  C9  UNK     1      47.720   2.468   6.866  1.00  0.00     0.071 A 
ATOM     11  C10 UNK     1      48.308   2.140   8.089  1.00  0.00     0.074 A 
ENDROOT
BRANCH   5  12
ATOM     12  C4  UNK     1      41.987   1.073   8.142  1.00  0.00    -0.002 A 
ATOM     13  C12 UNK     1      41.328   2.161   7.565  1.00  0.00     0.017 A 
ATOM     14  C14 UNK     1      39.979   2.062   7.225  1.00  0.00     0.037 A 
ATOM     15  C15 UNK     1      39.285   0.876   7.460  1.00  0.00     0.065 A 
ATOM     16  C13 UNK     1      39.939  -0.212   8.036  1.00  0.00     0.037 A 
ATOM     17  C11 UNK     1      41.288  -0.115   8.377  1.00  0.00     0.017 A 
BRANCH  15  18
ATOM     18  O5  UNK     1      37.969   0.781   7.128  1.00  0.00    -0.361 OA
ATOM     19  H10 UNK     1      37.612   1.677   6.998  1.00  0.00     0.217 HD
ENDBRANCH  15  18
ENDBRANCH   5  12
BRANCH   8  20
ATOM     20  O2  UNK     1      48.148   1.343  10.307  1.00  0.00    -0.360 OA
ATOM     21  H8  UNK     1      49.026   0.966  10.137  1.00  0.00     0.217 HD
ENDBRANCH   8  20
BRANCH  10  22
ATOM     22  O4  UNK     1      48.488   2.950   5.850  1.00  0.00    -0.361 OA
ATOM     23  H9  UNK     1      48.399   2.361   5.081  1.00  0.00     0.217 HD
ENDBRANCH  10  22
TORSDOF 4
ENDMDL
MODEL 8
REMARK VINA RESULT:      -6.0     12.822     15.671
REMARK  4 active torsions:
REMARK  status: ('A' for Active; 'I' for Inactive)
REMARK    1  A    between atoms: O2_2  and  C7_12 
REMARK    2  A    between atoms: O4_4  and  C9_14 
REMARK    3  A    between atoms: O5_5  and  C15_20 
REMARK    4  A    between atoms: C3_8  and  C4_9 
ROOT
ATOM      1  O1  UNK     1      38.905  22.089  11.015  1.00  0.00    -0.309 OA
ATOM      2  O3  UNK     1      37.720  19.655  14.060  1.00  0.00    -0.287 OA
ATOM      3  C1  UNK     1      39.316  20.123  12.381  1.00  0.00     0.081 A 
ATOM      4  C2  UNK     1      39.663  20.996  11.353  1.00  0.00     0.095 A 
ATOM      5  C3  UNK     1      37.737  22.327  11.724  1.00  0.00     0.090 A 
ATOM      6  C5  UNK     1      38.083  20.378  13.144  1.00  0.00     0.190 A 
ATOM      7  C6  UNK     1      37.301  21.564  12.740  1.00  0.00     0.094 A 
ATOM      8  C7  UNK     1      40.127  19.027  12.683  1.00  0.00     0.085 A 
ATOM      9  C8  UNK     1      40.828  20.778  10.617  1.00  0.00     0.075 A 
ATOM     10  C9  UNK     1      41.641  19.684  10.913  1.00  0.00     0.071 A 
ATOM     11  C10 UNK     1      41.291  18.810  11.944  1.00  0.00     0.074 A 
ENDROOT
BRANCH   5  12
ATOM     12  C4  UNK     1      37.003  23.529  11.283  1.00  0.00    -0.002 A 
ATOM     13  C12 UNK     1      35.963  23.415  10.358  1.00  0.00     0.017 A 
ATOM     14  C14 UNK     1      35.269  24.552   9.941  1.00  0.00     0.037 A 
ATOM     15  C15 UNK     1      35.613  25.805  10.448  1.00  0.00     0.065 A 
ATOM     16  C13 UNK     1      36.652  25.922  11.371  1.00  0.00     0.037 A 
ATOM     17  C11 UNK     1      37.345  24.786  11.789  1.00  0.00     0.017 A 
BRANCH  15  18
ATOM     18  O5  UNK     1      34.937  26.913  10.040  1.00  0.00    -0.361 OA
ATOM     19  H10 UNK     1      34.538  27.342  10.817  1.00  0.00     0.217 HD
ENDBRANCH  15  18
ENDBRANCH   5  12
BRANCH   8  20
ATOM     20  O2  UNK     1      39.831  18.145  13.678  1.00  0.00    -0.360 OA
ATOM     21  H8  UNK     1      39.718  17.252  13.318  1.00  0.00     0.217 HD
ENDBRANCH   8  20
BRANCH  10  22
ATOM     22  O4  UNK     1      42.779  19.468  10.196  1.00  0.00    -0.361 OA
ATOM     23  H9  UNK     1      43.444  19.059  10.776  1.00  0.00     0.217 HD
ENDBRANCH  10  22
TORSDOF 4
ENDMDL
MODEL 9
REMARK VINA RESULT:      -6.0     12.649     15.221
REMARK  4 active torsions:
REMARK  status: ('A' for Active; 'I' for Inactive)
REMARK    1  A    between atoms: O2_2  and  C7_12 
REMARK    2  A    between atoms: O4_4  and  C9_14 
REMARK    3  A    between atoms: O5_5  and  C15_20 
REMARK    4  A    between atoms: C3_8  and  C4_9 
ROOT
ATOM      1  O1  UNK     1      36.622  23.331  10.689  1.00  0.00    -0.309 OA
ATOM      2  O3  UNK     1      34.374  22.779  14.041  1.00  0.00    -0.287 OA
ATOM      3  C1  UNK     1      34.696  23.967  12.024  1.00  0.00     0.081 A 
ATOM      4  C2  UNK     1      35.507  24.102  10.900  1.00  0.00     0.095 A 
ATOM      5  C3  UNK     1      36.958  22.381  11.642  1.00  0.00     0.090 A 
ATOM      6  C5  UNK     1      35.043  22.953  13.033  1.00  0.00     0.190 A 
ATOM      7  C6  UNK     1      36.253  22.151  12.761  1.00  0.00     0.094 A 
ATOM      8  C7  UNK     1      33.572  24.779  12.187  1.00  0.00     0.085 A 
ATOM      9  C8  UNK     1      35.199  25.054   9.928  1.00  0.00     0.075 A 
ATOM     10  C9  UNK     1      34.077  25.869  10.085  1.00  0.00     0.071 A 
ATOM     11  C10 UNK     1      33.265  25.732  11.213  1.00  0.00     0.074 A 
ENDROOT
BRANCH   5  12
ATOM     12  C4  UNK     1      38.170  21.604  11.313  1.00  0.00    -0.002 A 
ATOM     13  C12 UNK     1      38.696  21.638  10.019  1.00  0.00     0.017 A 
ATOM     14  C14 UNK     1      39.840  20.903   9.709  1.00  0.00     0.037 A 
ATOM     15  C15 UNK     1      40.462  20.132  10.691  1.00  0.00     0.065 A 
ATOM     16  C13 UNK     1      39.939  20.096  11.984  1.00  0.00     0.037 A 
ATOM     17  C11 UNK     1      38.795  20.831  12.295  1.00  0.00     0.017 A 
BRANCH  15  18
ATOM     18  O5  UNK     1      41.578  19.415  10.388  1.00  0.00    -0.361 OA
ATOM     19  H10 UNK     1      42.361  19.969  10.548  1.00  0.00     0.217 HD
ENDBRANCH  15  18
ENDBRANCH   5  12
BRANCH   8  20
ATOM     20  O2  UNK     1      32.747  24.686  13.266  1.00  0.00    -0.360 OA
ATOM     21  H8  UNK     1      31.819  24.698  12.987  1.00  0.00     0.217 HD
ENDBRANCH   8  20
BRANCH  10  22
ATOM     22  O4  UNK     1      33.774  26.798   9.138  1.00  0.00    -0.361 OA
ATOM     23  H9  UNK     1      33.007  27.316   9.439  1.00  0.00     0.217 HD
ENDBRANCH  10  22
TORSDOF 4
ENDMDL
MODEL 10
REMARK VINA RESULT:      -5.9     15.741     18.220
REMARK  4 active torsions:
REMARK  status: ('A' for Active; 'I' for Inactive)
REMARK    1  A    between atoms: O2_2  and  C7_12 
REMARK    2  A    between atoms: O4_4  and  C9_14 
REMARK    3  A    between atoms: O5_5  and  C15_20 
REMARK    4  A    between atoms: C3_8  and  C4_9 
ROOT
ATOM      1  O1  UNK     1      43.086   1.385   8.100  1.00  0.00    -0.309 OA
ATOM      2  O3  UNK     1      41.546  -1.728  10.230  1.00  0.00    -0.287 OA
ATOM      3  C1  UNK     1      41.148   0.079   8.760  1.00  0.00     0.081 A 
ATOM      4  C2  UNK     1      41.739   1.125   8.056  1.00  0.00     0.095 A 
ATOM      5  C3  UNK     1      43.890   0.574   8.887  1.00  0.00     0.090 A 
ATOM      6  C5  UNK     1      41.998  -0.790   9.588  1.00  0.00     0.190 A 
ATOM      7  C6  UNK     1      43.440  -0.467   9.605  1.00  0.00     0.094 A 
ATOM      8  C7  UNK     1      39.771  -0.140   8.677  1.00  0.00     0.085 A 
ATOM      9  C8  UNK     1      40.956   1.963   7.261  1.00  0.00     0.075 A 
ATOM     10  C9  UNK     1      39.580   1.749   7.175  1.00  0.00     0.071 A 
ATOM     11  C10 UNK     1      38.988   0.700   7.882  1.00  0.00     0.074 A 
ENDROOT
BRANCH   5  12
ATOM     12  C4  UNK     1      45.320   0.938   8.858  1.00  0.00    -0.002 A 
ATOM     13  C12 UNK     1      45.816   1.754   7.839  1.00  0.00     0.017 A 
ATOM     14  C14 UNK     1      47.168   2.097   7.812  1.00  0.00     0.037 A 
ATOM     15  C15 UNK     1      48.028   1.625   8.804  1.00  0.00     0.065 A 
ATOM     16  C13 UNK     1      47.536   0.809   9.822  1.00  0.00     0.037 A 
ATOM     17  C11 UNK     1      46.184   0.466   9.850  1.00  0.00     0.017 A 
BRANCH  15  18
ATOM     18  O5  UNK     1      49.347   1.959   8.776  1.00  0.00    -0.361 OA
ATOM     19  H10 UNK     1      49.859   1.191   8.468  1.00  0.00     0.217 HD
ENDBRANCH  15  18
ENDBRANCH   5  12
BRANCH   8  20
ATOM     20  O2  UNK     1      39.145  -1.148   9.344  1.00  0.00    -0.360 OA
ATOM     21  H8  UNK     1      38.260  -0.870   9.628  1.00  0.00     0.217 HD
ENDBRANCH   8  20
BRANCH  10  22
ATOM     22  O4  UNK     1      38.812   2.564   6.400  1.00  0.00    -0.361 OA
ATOM     23  H9  UNK     1      38.831   3.463   6.773  1.00  0.00     0.217 HD
ENDBRANCH  10  22
TORSDOF 4
ENDMDL
MODEL 11
REMARK VINA RESULT:      -5.9     16.134     18.321
REMARK  4 active torsions:
REMARK  status: ('A' for Active; 'I' for Inactive)
REMARK    1  A    between atoms: O2_2  and  C7_12 
REMARK    2  A    between atoms: O4_4  and  C9_14 
REMARK    3  A    between atoms: O5_5  and  C15_20 
REMARK    4  A    between atoms: C3_8  and  C4_9 
ROOT
ATOM      1  O1  UNK     1      41.883  -0.431   8.425  1.00  0.00    -0.309 OA
ATOM      2  O3  UNK     1      39.176   2.313   7.105  1.00  0.00    -0.287 OA
ATOM      3  C1  UNK     1      39.578   0.123   7.897  1.00  0.00     0.081 A 
ATOM      4  C2  UNK     1      40.555  -0.766   8.340  1.00  0.00     0.095 A 
ATOM      5  C3  UNK     1      42.268   0.845   8.043  1.00  0.00     0.090 A 
ATOM      6  C5  UNK     1      39.981   1.482   7.501  1.00  0.00     0.190 A 
ATOM      7  C6  UNK     1      41.421   1.791   7.607  1.00  0.00     0.094 A 
ATOM      8  C7  UNK     1      38.240  -0.271   7.833  1.00  0.00     0.085 A 
ATOM      9  C8  UNK     1      40.199  -2.059   8.724  1.00  0.00     0.075 A 
ATOM     10  C9  UNK     1      38.863  -2.458   8.662  1.00  0.00     0.071 A 
ATOM     11  C10 UNK     1      37.885  -1.566   8.216  1.00  0.00     0.074 A 
ENDROOT
BRANCH   5  12
ATOM     12  C4  UNK     1      43.716   1.100   8.178  1.00  0.00    -0.002 A 
ATOM     13  C12 UNK     1      44.379   1.895   7.241  1.00  0.00     0.017 A 
ATOM     14  C14 UNK     1      45.747   2.135   7.370  1.00  0.00     0.037 A 
ATOM     15  C15 UNK     1      46.457   1.580   8.435  1.00  0.00     0.065 A 
ATOM     16  C13 UNK     1      45.797   0.785   9.371  1.00  0.00     0.037 A 
ATOM     17  C11 UNK     1      44.429   0.545   9.244  1.00  0.00     0.017 A 
BRANCH  15  18
ATOM     18  O5  UNK     1      47.791   1.814   8.558  1.00  0.00    -0.361 OA
ATOM     19  H10 UNK     1      47.966   2.176   9.444  1.00  0.00     0.217 HD
ENDBRANCH  15  18
ENDBRANCH   5  12
BRANCH   8  20
ATOM     20  O2  UNK     1      37.248   0.560   7.407  1.00  0.00    -0.360 OA
ATOM     21  H8  UNK     1      37.354   1.441   7.797  1.00  0.00     0.217 HD
ENDBRANCH   8  20
BRANCH  10  22
ATOM     22  O4  UNK     1      38.512  -3.719   9.035  1.00  0.00    -0.361 OA
ATOM     23  H9  UNK     1      37.687  -3.678   9.549  1.00  0.00     0.217 HD
ENDBRANCH  10  22
TORSDOF 4
ENDMDL
MODEL 12
REMARK VINA RESULT:      -5.9     16.413     18.640
REMARK  4 active torsions:
REMARK  status: ('A' for Active; 'I' for Inactive)
REMARK    1  A    between atoms: O2_2  and  C7_12 
REMARK    2  A    between atoms: O4_4  and  C9_14 
REMARK    3  A    between atoms: O5_5  and  C15_20 
REMARK    4  A    between atoms: C3_8  and  C4_9 
ROOT
ATOM      1  O1  UNK     1      43.617  -0.114   9.052  1.00  0.00    -0.309 OA
ATOM      2  O3  UNK     1      40.560   1.985   7.364  1.00  0.00    -0.287 OA
ATOM      3  C1  UNK     1      41.233   0.120   8.649  1.00  0.00     0.081 A 
ATOM      4  C2  UNK     1      42.324  -0.549   9.200  1.00  0.00     0.095 A 
ATOM      5  C3  UNK     1      43.846   1.037   8.313  1.00  0.00     0.090 A 
ATOM      6  C5  UNK     1      41.470   1.347   7.873  1.00  0.00     0.190 A 
ATOM      7  C6  UNK     1      42.879   1.772   7.740  1.00  0.00     0.094 A 
ATOM      8  C7  UNK     1      39.938  -0.369   8.833  1.00  0.00     0.085 A 
ATOM      9  C8  UNK     1      42.126  -1.714   9.942  1.00  0.00     0.075 A 
ATOM     10  C9  UNK     1      40.834  -2.206  10.129  1.00  0.00     0.071 A 
ATOM     11  C10 UNK     1      39.742  -1.535   9.575  1.00  0.00     0.074 A 
ENDROOT
BRANCH   5  12
ATOM     12  C4  UNK     1      45.269   1.418   8.221  1.00  0.00    -0.002 A 
ATOM     13  C12 UNK     1      46.183   0.949   9.167  1.00  0.00     0.017 A 
ATOM     14  C14 UNK     1      47.528   1.309   9.080  1.00  0.00     0.037 A 
ATOM     15  C15 UNK     1      47.963   2.140   8.047  1.00  0.00     0.065 A 
ATOM     16  C13 UNK     1      47.052   2.611   7.102  1.00  0.00     0.037 A 
ATOM     17  C11 UNK     1      45.707   2.251   7.188  1.00  0.00     0.017 A 
BRANCH  15  18
ATOM     18  O5  UNK     1      49.274   2.492   7.964  1.00  0.00    -0.361 OA
ATOM     19  H10 UNK     1      49.352   3.284   7.403  1.00  0.00     0.217 HD
ENDBRANCH  15  18
ENDBRANCH   5  12
BRANCH   8  20
ATOM     20  O2  UNK     1      38.839   0.248   8.316  1.00  0.00    -0.360 OA
ATOM     21  H8  UNK     1      39.102   0.980   7.737  1.00  0.00     0.217 HD
ENDBRANCH   8  20
BRANCH  10  22
ATOM     22  O4  UNK     1      40.638  -3.343  10.852  1.00  0.00    -0.361 OA
ATOM     23  H9  UNK     1      41.484  -3.618  11.244  1.00  0.00     0.217 HD
ENDBRANCH  10  22
TORSDOF 4
ENDMDL
MODEL 13
REMARK VINA RESULT:      -5.9     22.482     26.356
REMARK  4 active torsions:
REMARK  status: ('A' for Active; 'I' for Inactive)
REMARK    1  A    between atoms: O2_2  and  C7_12 
REMARK    2  A    between atoms: O4_4  and  C9_14 
REMARK    3  A    between atoms: O5_5  and  C15_20 
REMARK    4  A    between atoms: C3_8  and  C4_9 
ROOT
ATOM      1  O1  UNK     1      38.823  -9.919   4.943  1.00  0.00    -0.309 OA
ATOM      2  O3  UNK     1      36.270 -10.704   1.866  1.00  0.00    -0.287 OA
ATOM      3  C1  UNK     1      37.281  -9.087   3.261  1.00  0.00     0.081 A 
ATOM      4  C2  UNK     1      38.167  -8.889   4.318  1.00  0.00     0.095 A 
ATOM      5  C3  UNK     1      38.584 -11.214   4.508  1.00  0.00     0.090 A 
ATOM      6  C5  UNK     1      37.033 -10.458   2.789  1.00  0.00     0.190 A 
ATOM      7  C6  UNK     1      37.760 -11.532   3.496  1.00  0.00     0.094 A 
ATOM      8  C7  UNK     1      36.642  -7.999   2.661  1.00  0.00     0.085 A 
ATOM      9  C8  UNK     1      38.421  -7.598   4.783  1.00  0.00     0.075 A 
ATOM     10  C9  UNK     1      37.786  -6.509   4.187  1.00  0.00     0.071 A 
ATOM     11  C10 UNK     1      36.897  -6.709   3.128  1.00  0.00     0.074 A 
ENDROOT
BRANCH   5  12
ATOM     12  C4  UNK     1      39.344 -12.244   5.244  1.00  0.00    -0.002 A 
ATOM     13  C12 UNK     1      39.581 -12.096   6.612  1.00  0.00     0.017 A 
ATOM     14  C14 UNK     1      40.300 -13.069   7.307  1.00  0.00     0.037 A 
ATOM     15  C15 UNK     1      40.783 -14.193   6.637  1.00  0.00     0.065 A 
ATOM     16  C13 UNK     1      40.549 -14.342   5.270  1.00  0.00     0.037 A 
ATOM     17  C11 UNK     1      39.830 -13.370   4.574  1.00  0.00     0.017 A 
BRANCH  15  18
ATOM     18  O5  UNK     1      41.485 -15.141   7.315  1.00  0.00    -0.361 OA
ATOM     19  H10 UNK     1      41.518 -15.952   6.779  1.00  0.00     0.217 HD
ENDBRANCH  15  18
ENDBRANCH   5  12
BRANCH   8  20
ATOM     20  O2  UNK     1      35.768  -8.140   1.626  1.00  0.00    -0.360 OA
ATOM     21  H8  UNK     1      35.579  -7.279   1.222  1.00  0.00     0.217 HD
ENDBRANCH   8  20
BRANCH  10  22
ATOM     22  O4  UNK     1      38.032  -5.248   4.638  1.00  0.00    -0.361 OA
ATOM     23  H9  UNK     1      37.932  -5.234   5.606  1.00  0.00     0.217 HD
ENDBRANCH  10  22
TORSDOF 4
ENDMDL
MODEL 14
REMARK VINA RESULT:      -5.8     15.824     16.749
REMARK  4 active torsions:
REMARK  status: ('A' for Active; 'I' for Inactive)
REMARK    1  A    between atoms: O2_2  and  C7_12 
REMARK    2  A    between atoms: O4_4  and  C9_14 
REMARK    3  A    between atoms: O5_5  and  C15_20 
REMARK    4  A    between atoms: C3_8  and  C4_9 
ROOT
ATOM      1  O1  UNK     1      43.611   1.839   7.471  1.00  0.00    -0.309 OA
ATOM      2  O3  UNK     1      44.037   4.806  10.230  1.00  0.00    -0.287 OA
ATOM      3  C1  UNK     1      45.049   3.452   8.579  1.00  0.00     0.081 A 
ATOM      4  C2  UNK     1      44.834   2.434   7.653  1.00  0.00     0.095 A 
ATOM      5  C3  UNK     1      42.546   2.266   8.250  1.00  0.00     0.090 A 
ATOM      6  C5  UNK     1      43.920   3.916   9.400  1.00  0.00     0.190 A 
ATOM      7  C6  UNK     1      42.626   3.242   9.168  1.00  0.00     0.094 A 
ATOM      8  C7  UNK     1      46.316   4.023   8.722  1.00  0.00     0.085 A 
ATOM      9  C8  UNK     1      45.888   1.978   6.861  1.00  0.00     0.075 A 
ATOM     10  C9  UNK     1      47.155   2.544   6.999  1.00  0.00     0.071 A 
ATOM     11  C10 UNK     1      47.369   3.564   7.929  1.00  0.00     0.074 A 
ENDROOT
BRANCH   5  12
ATOM     12  C4  UNK     1      41.279   1.565   7.968  1.00  0.00    -0.002 A 
ATOM     13  C12 UNK     1      40.218   2.245   7.366  1.00  0.00     0.017 A 
ATOM     14  C14 UNK     1      39.020   1.582   7.101  1.00  0.00     0.037 A 
ATOM     15  C15 UNK     1      38.878   0.235   7.438  1.00  0.00     0.065 A 
ATOM     16  C13 UNK     1      39.935  -0.447   8.040  1.00  0.00     0.037 A 
ATOM     17  C11 UNK     1      41.134   0.216   8.305  1.00  0.00     0.017 A 
BRANCH  15  18
ATOM     18  O5  UNK     1      37.709  -0.411   7.180  1.00  0.00    -0.361 OA
ATOM     19  H10 UNK     1      36.988   0.046   7.647  1.00  0.00     0.217 HD
ENDBRANCH  15  18
ENDBRANCH   5  12
BRANCH   8  20
ATOM     20  O2  UNK     1      46.577   5.020   9.611  1.00  0.00    -0.360 OA
ATOM     21  H8  UNK     1      46.855   5.825   9.147  1.00  0.00     0.217 HD
ENDBRANCH   8  20
BRANCH  10  22
ATOM     22  O4  UNK     1      48.186   2.101   6.228  1.00  0.00    -0.361 OA
ATOM     23  H9  UNK     1      48.219   1.130   6.271  1.00  0.00     0.217 HD
ENDBRANCH  10  22
TORSDOF 4
ENDMDL
MODEL 15
REMARK VINA RESULT:      -5.7     16.581     18.996
REMARK  4 active torsions:
REMARK  status: ('A' for Active; 'I' for Inactive)
REMARK    1  A    between atoms: O2_2  and  C7_12 
REMARK    2  A    between atoms: O4_4  and  C9_14 
REMARK    3  A    between atoms: O5_5  and  C15_20 
REMARK    4  A    between atoms: C3_8  and  C4_9 
ROOT
ATOM      1  O1  UNK     1      41.690   0.410   8.213  1.00  0.00    -0.309 OA
ATOM      2  O3  UNK     1      41.592  -2.690  10.855  1.00  0.00    -0.287 OA
ATOM      3  C1  UNK     1      40.398  -1.288   9.374  1.00  0.00     0.081 A 
ATOM      4  C2  UNK     1      40.502  -0.224   8.481  1.00  0.00     0.095 A 
ATOM      5  C3  UNK     1      42.833  -0.025   8.867  1.00  0.00     0.090 A 
ATOM      6  C5  UNK     1      41.610  -1.760  10.062  1.00  0.00     0.190 A 
ATOM      7  C6  UNK     1      42.862  -1.044   9.741  1.00  0.00     0.094 A 
ATOM      8  C7  UNK     1      39.163  -1.897   9.607  1.00  0.00     0.085 A 
ATOM      9  C8  UNK     1      39.369   0.241   7.815  1.00  0.00     0.075 A 
ATOM     10  C9  UNK     1      38.132  -0.363   8.044  1.00  0.00     0.071 A 
ATOM     11  C10 UNK     1      38.030  -1.430   8.940  1.00  0.00     0.074 A 
ENDROOT
BRANCH   5  12
ATOM     12  C4  UNK     1      44.053   0.721   8.501  1.00  0.00    -0.002 A 
ATOM     13  C12 UNK     1      45.183   0.662   9.319  1.00  0.00     0.017 A 
ATOM     14  C14 UNK     1      46.336   1.368   8.974  1.00  0.00     0.037 A 
ATOM     15  C15 UNK     1      46.362   2.135   7.809  1.00  0.00     0.065 A 
ATOM     16  C13 UNK     1      45.234   2.197   6.990  1.00  0.00     0.037 A 
ATOM     17  C11 UNK     1      44.082   1.491   7.335  1.00  0.00     0.017 A 
BRANCH  15  18
ATOM     18  O5  UNK     1      47.486   2.824   7.473  1.00  0.00    -0.361 OA
ATOM     19  H10 UNK     1      48.260   2.251   7.615  1.00  0.00     0.217 HD
ENDBRANCH  15  18
ENDBRANCH   5  12
BRANCH   8  20
ATOM     20  O2  UNK     1      39.009  -2.940  10.469  1.00  0.00    -0.360 OA
ATOM     21  H8  UNK     1      39.266  -3.773  10.043  1.00  0.00     0.217 HD
ENDBRANCH   8  20
BRANCH  10  22
ATOM     22  O4  UNK     1      37.024   0.088   7.395  1.00  0.00    -0.361 OA
ATOM     23  H9  UNK     1      37.065   1.058   7.336  1.00  0.00     0.217 HD
ENDBRANCH  10  22
TORSDOF 4
ENDMDL
MODEL 16
REMARK VINA RESULT:      -5.7     22.139     23.152
REMARK  4 active torsions:
REMARK  status: ('A' for Active; 'I' for Inactive)
REMARK    1  A    between atoms: O2_2  and  C7_12 
REMARK    2  A    between atoms: O4_4  and  C9_14 
REMARK    3  A    between atoms: O5_5  and  C15_20 
REMARK    4  A    between atoms: C3_8  and  C4_9 
ROOT
ATOM      1  O1  UNK     1      55.979  -1.076   2.523  1.00  0.00    -0.309 OA
ATOM      2  O3  UNK     1      52.606  -2.250   0.562  1.00  0.00    -0.287 OA
ATOM      3  C1  UNK     1      54.847  -1.516   0.419  1.00  0.00     0.081 A 
ATOM      4  C2  UNK     1      55.966  -1.125   1.151  1.00  0.00     0.095 A 
ATOM      5  C3  UNK     1      54.823  -1.423   3.207  1.00  0.00     0.090 A 
ATOM      6  C5  UNK     1      53.622  -1.895   1.141  1.00  0.00     0.190 A 
ATOM      7  C6  UNK     1      53.686  -1.822   2.615  1.00  0.00     0.094 A 
ATOM      8  C7  UNK     1      54.891  -1.549  -0.976  1.00  0.00     0.085 A 
ATOM      9  C8  UNK     1      57.140  -0.763   0.491  1.00  0.00     0.075 A 
ATOM     10  C9  UNK     1      57.190  -0.793  -0.903  1.00  0.00     0.071 A 
ATOM     11  C10 UNK     1      56.067  -1.185  -1.635  1.00  0.00     0.074 A 
ENDROOT
BRANCH   5  12
ATOM     12  C4  UNK     1      54.948  -1.340   4.675  1.00  0.00    -0.002 A 
ATOM     13  C12 UNK     1      55.697  -0.316   5.260  1.00  0.00     0.017 A 
ATOM     14  C14 UNK     1      55.815  -0.239   6.647  1.00  0.00     0.037 A 
ATOM     15  C15 UNK     1      55.185  -1.186   7.455  1.00  0.00     0.065 A 
ATOM     16  C13 UNK     1      54.437  -2.210   6.875  1.00  0.00     0.037 A 
ATOM     17  C11 UNK     1      54.318  -2.288   5.487  1.00  0.00     0.017 A 
BRANCH  15  18
ATOM     18  O5  UNK     1      55.302  -1.111   8.809  1.00  0.00    -0.361 OA
ATOM     19  H10 UNK     1      56.092  -0.587   9.028  1.00  0.00     0.217 HD
ENDBRANCH  15  18
ENDBRANCH   5  12
BRANCH   8  20
ATOM     20  O2  UNK     1      53.826  -1.923  -1.737  1.00  0.00    -0.360 OA
ATOM     21  H8  UNK     1      54.117  -2.179  -2.626  1.00  0.00     0.217 HD
ENDBRANCH   8  20
BRANCH  10  22
ATOM     22  O4  UNK     1      58.334  -0.441  -1.550  1.00  0.00    -0.361 OA
ATOM     23  H9  UNK     1      58.286  -0.754  -2.470  1.00  0.00     0.217 HD
ENDBRANCH  10  22
TORSDOF 4
ENDMDL
MODEL 17
REMARK VINA RESULT:      -5.6     15.068     18.120
REMARK  4 active torsions:
REMARK  status: ('A' for Active; 'I' for Inactive)
REMARK    1  A    between atoms: O2_2  and  C7_12 
REMARK    2  A    between atoms: O4_4  and  C9_14 
REMARK    3  A    between atoms: O5_5  and  C15_20 
REMARK    4  A    between atoms: C3_8  and  C4_9 
ROOT
ATOM      1  O1  UNK     1      42.176   1.142   9.481  1.00  0.00    -0.309 OA
ATOM      2  O3  UNK     1      39.053   1.058   6.867  1.00  0.00    -0.287 OA
ATOM      3  C1  UNK     1      40.458  -0.141   8.340  1.00  0.00     0.081 A 
ATOM      4  C2  UNK     1      41.531  -0.041   9.223  1.00  0.00     0.095 A 
ATOM      5  C3  UNK     1      41.745   2.286   8.826  1.00  0.00     0.090 A 
ATOM      6  C5  UNK     1      39.990   1.073   7.651  1.00  0.00     0.190 A 
ATOM      7  C6  UNK     1      40.719   2.320   7.961  1.00  0.00     0.094 A 
ATOM      8  C7  UNK     1      39.838  -1.372   8.117  1.00  0.00     0.085 A 
ATOM      9  C8  UNK     1      41.993  -1.176   9.890  1.00  0.00     0.075 A 
ATOM     10  C9  UNK     1      41.377  -2.408   9.670  1.00  0.00     0.071 A 
ATOM     11  C10 UNK     1      40.302  -2.506   8.785  1.00  0.00     0.074 A 
ENDROOT
BRANCH   5  12
ATOM     12  C4  UNK     1      42.503   3.502   9.181  1.00  0.00    -0.002 A 
ATOM     13  C12 UNK     1      43.834   3.640   8.782  1.00  0.00     0.017 A 
ATOM     14  C14 UNK     1      44.551   4.788   9.117  1.00  0.00     0.037 A 
ATOM     15  C15 UNK     1      43.939   5.803   9.853  1.00  0.00     0.065 A 
ATOM     16  C13 UNK     1      42.610   5.668  10.254  1.00  0.00     0.037 A 
ATOM     17  C11 UNK     1      41.892   4.520   9.918  1.00  0.00     0.017 A 
BRANCH  15  18
ATOM     18  O5  UNK     1      44.638   6.923  10.181  1.00  0.00    -0.361 OA
ATOM     19  H10 UNK     1      44.307   7.668   9.650  1.00  0.00     0.217 HD
ENDBRANCH  15  18
ENDBRANCH   5  12
BRANCH   8  20
ATOM     20  O2  UNK     1      38.786  -1.521   7.265  1.00  0.00    -0.360 OA
ATOM     21  H8  UNK     1      38.970  -2.218   6.617  1.00  0.00     0.217 HD
ENDBRANCH   8  20
BRANCH  10  22
ATOM     22  O4  UNK     1      41.825  -3.518  10.320  1.00  0.00    -0.361 OA
ATOM     23  H9  UNK     1      42.418  -3.244  11.041  1.00  0.00     0.217 HD
ENDBRANCH  10  22
TORSDOF 4
ENDMDL
