MODEL 1
REMARK VINA RESULT:      -6.0      0.000      0.000
REMARK  4 active torsions:
REMARK  status: ('A' for Active; 'I' for Inactive)
REMARK    1  A    between atoms: O2_2  and  C7_12 
REMARK    2  A    between atoms: O4_4  and  C9_14 
REMARK    3  A    between atoms: O5_5  and  C15_20 
REMARK    4  A    between atoms: C3_8  and  C4_9 
ROOT
ATOM      1  O1  UNK     1      42.680   1.177   7.946  1.00  0.00    -0.309 OA
ATOM      2  O3  UNK     1      41.330  -1.709  10.484  1.00  0.00    -0.287 OA
ATOM      3  C1  UNK     1      40.815  -0.106   8.827  1.00  0.00     0.081 A 
ATOM      4  C2  UNK     1      41.343   0.869   7.983  1.00  0.00     0.095 A 
ATOM      5  C3  UNK     1      43.539   0.493   8.793  1.00  0.00     0.090 A 
ATOM      6  C5  UNK     1      41.725  -0.841   9.720  1.00  0.00     0.190 A 
ATOM      7  C6  UNK     1      43.153  -0.470   9.644  1.00  0.00     0.094 A 
ATOM      8  C7  UNK     1      39.446  -0.379   8.821  1.00  0.00     0.085 A 
ATOM      9  C8  UNK     1      40.503   1.578   7.125  1.00  0.00     0.075 A 
ATOM     10  C9  UNK     1      39.134   1.310   7.115  1.00  0.00     0.071 A 
ATOM     11  C10 UNK     1      38.606   0.333   7.963  1.00  0.00     0.074 A 
ENDROOT
BRANCH   5  12
ATOM     12  C4  UNK     1      44.953   0.899   8.668  1.00  0.00    -0.002 A 
ATOM     13  C12 UNK     1      45.885   0.502   9.629  1.00  0.00     0.017 A 
ATOM     14  C14 UNK     1      47.220   0.886   9.511  1.00  0.00     0.037 A 
ATOM     15  C15 UNK     1      47.629   1.668   8.430  1.00  0.00     0.065 A 
ATOM     16  C13 UNK     1      46.701   2.067   7.469  1.00  0.00     0.037 A 
ATOM     17  C11 UNK     1      45.365   1.683   7.586  1.00  0.00     0.017 A 
BRANCH  15  18
ATOM     18  O5  UNK     1      48.932   2.043   8.316  1.00  0.00    -0.361 OA
ATOM     19  H10 UNK     1      49.047   2.532   7.482  1.00  0.00     0.217 HD
ENDBRANCH  15  18
ENDBRANCH   5  12
BRANCH   8  20
ATOM     20  O2  UNK     1      38.881  -1.321   9.626  1.00  0.00    -0.360 OA
ATOM     21  H8  UNK     1      38.911  -2.192   9.202  1.00  0.00     0.217 HD
ENDBRANCH   8  20
BRANCH  10  22
ATOM     22  O4  UNK     1      38.311   2.000   6.279  1.00  0.00    -0.361 OA
ATOM     23  H9  UNK     1      37.388   1.842   6.543  1.00  0.00     0.217 HD
ENDBRANCH  10  22
TORSDOF 4
ENDMDL
MODEL 2
REMARK VINA RESULT:      -6.0      1.717      6.933
REMARK  4 active torsions:
REMARK  status: ('A' for Active; 'I' for Inactive)
REMARK    1  A    between atoms: O2_2  and  C7_12 
REMARK    2  A    between atoms: O4_4  and  C9_14 
REMARK    3  A    between atoms: O5_5  and  C15_20 
REMARK    4  A    between atoms: C3_8  and  C4_9 
ROOT
ATOM      1  O1  UNK     1      44.632   1.758   7.496  1.00  0.00    -0.309 OA
ATOM      2  O3  UNK     1      46.444   0.391  10.879  1.00  0.00    -0.287 OA
ATOM      3  C1  UNK     1      46.672   1.443   8.775  1.00  0.00     0.081 A 
ATOM      4  C2  UNK     1      45.989   1.889   7.646  1.00  0.00     0.095 A 
ATOM      5  C3  UNK     1      43.911   1.146   8.511  1.00  0.00     0.090 A 
ATOM      6  C5  UNK     1      45.910   0.803   9.859  1.00  0.00     0.190 A 
ATOM      7  C6  UNK     1      44.453   0.683   9.648  1.00  0.00     0.094 A 
ATOM      8  C7  UNK     1      48.056   1.604   8.875  1.00  0.00     0.085 A 
ATOM      9  C8  UNK     1      46.688   2.501   6.605  1.00  0.00     0.075 A 
ATOM     10  C9  UNK     1      48.070   2.664   6.699  1.00  0.00     0.071 A 
ATOM     11  C10 UNK     1      48.753   2.216   7.832  1.00  0.00     0.074 A 
ENDROOT
BRANCH   5  12
ATOM     12  C4  UNK     1      42.461   1.062   8.249  1.00  0.00    -0.002 A 
ATOM     13  C12 UNK     1      41.794   2.127   7.640  1.00  0.00     0.017 A 
ATOM     14  C14 UNK     1      40.424   2.047   7.395  1.00  0.00     0.037 A 
ATOM     15  C15 UNK     1      39.715   0.902   7.757  1.00  0.00     0.065 A 
ATOM     16  C13 UNK     1      40.377  -0.164   8.366  1.00  0.00     0.037 A 
ATOM     17  C11 UNK     1      41.748  -0.084   8.612  1.00  0.00     0.017 A 
BRANCH  15  18
ATOM     18  O5  UNK     1      38.378   0.825   7.518  1.00  0.00    -0.361 OA
ATOM     19  H10 UNK     1      38.180  -0.036   7.108  1.00  0.00     0.217 HD
ENDBRANCH  15  18
ENDBRANCH   5  12
BRANCH   8  20
ATOM     20  O2  UNK     1      48.768   1.186   9.957  1.00  0.00    -0.360 OA
ATOM     21  H8  UNK     1      48.205   0.672  10.557  1.00  0.00     0.217 HD
ENDBRANCH   8  20
BRANCH  10  22
ATOM     22  O4  UNK     1      48.755   3.261   5.685  1.00  0.00    -0.361 OA
ATOM     23  H9  UNK     1      48.938   2.600   4.995  1.00  0.00     0.217 HD
ENDBRANCH  10  22
TORSDOF 4
ENDMDL
MODEL 3
REMARK VINA RESULT:      -6.0      0.023      1.081
REMARK  4 active torsions:
REMARK  status: ('A' for Active; 'I' for Inactive)
REMARK    1  A    between atoms: O2_2  and  C7_12 
REMARK    2  A    between atoms: O4_4  and  C9_14 
REMARK    3  A    between atoms: O5_5  and  C15_20 
REMARK    4  A    between atoms: C3_8  and  C4_9 
ROOT
ATOM      1  O1  UNK     1      42.677   1.169   7.957  1.00  0.00    -0.309 OA
ATOM      2  O3  UNK     1      41.316  -1.731  10.474  1.00  0.00    -0.287 OA
ATOM      3  C1  UNK     1      40.808  -0.115   8.826  1.00  0.00     0.081 A 
ATOM      4  C2  UNK     1      41.339   0.864   7.990  1.00  0.00     0.095 A 
ATOM      5  C3  UNK     1      43.533   0.478   8.800  1.00  0.00     0.090 A 
ATOM      6  C5  UNK     1      41.714  -0.858   9.716  1.00  0.00     0.190 A 
ATOM      7  C6  UNK     1      43.143  -0.490   9.645  1.00  0.00     0.094 A 
ATOM      8  C7  UNK     1      39.438  -0.385   8.817  1.00  0.00     0.085 A 
ATOM      9  C8  UNK     1      40.502   1.581   7.135  1.00  0.00     0.075 A 
ATOM     10  C9  UNK     1      39.132   1.316   7.122  1.00  0.00     0.071 A 
ATOM     11  C10 UNK     1      38.601   0.335   7.962  1.00  0.00     0.074 A 
ENDROOT
BRANCH   5  12
ATOM     12  C4  UNK     1      44.948   0.881   8.680  1.00  0.00    -0.002 A 
ATOM     13  C12 UNK     1      45.364   1.672   7.607  1.00  0.00     0.017 A 
ATOM     14  C14 UNK     1      46.701   2.052   7.494  1.00  0.00     0.037 A 
ATOM     15  C15 UNK     1      47.627   1.642   8.453  1.00  0.00     0.065 A 
ATOM     16  C13 UNK     1      47.215   0.851   9.525  1.00  0.00     0.037 A 
ATOM     17  C11 UNK     1      45.878   0.471   9.640  1.00  0.00     0.017 A 
BRANCH  15  18
ATOM     18  O5  UNK     1      48.931   2.012   8.341  1.00  0.00    -0.361 OA
ATOM     19  H10 UNK     1      49.366   1.898   9.204  1.00  0.00     0.217 HD
ENDBRANCH  15  18
ENDBRANCH   5  12
BRANCH   8  20
ATOM     20  O2  UNK     1      38.869  -1.331   9.615  1.00  0.00    -0.360 OA
ATOM     21  H8  UNK     1      38.394  -0.914  10.350  1.00  0.00     0.217 HD
ENDBRANCH   8  20
BRANCH  10  22
ATOM     22  O4  UNK     1      38.312   2.014   6.289  1.00  0.00    -0.361 OA
ATOM     23  H9  UNK     1      38.823   2.725   5.865  1.00  0.00     0.217 HD
ENDBRANCH  10  22
TORSDOF 4
ENDMDL
MODEL 4
REMARK VINA RESULT:      -6.0      1.721      6.869
REMARK  4 active torsions:
REMARK  status: ('A' for Active; 'I' for Inactive)
REMARK    1  A    between atoms: O2_2  and  C7_12 
REMARK    2  A    between atoms: O4_4  and  C9_14 
REMARK    3  A    between atoms: O5_5  and  C15_20 
REMARK    4  A    between atoms: C3_8  and  C4_9 
ROOT
ATOM      1  O1  UNK     1      44.639   1.763   7.502  1.00  0.00    -0.309 OA
ATOM      2  O3  UNK     1      46.445   0.405  10.892  1.00  0.00    -0.287 OA
ATOM      3  C1  UNK     1      46.677   1.450   8.786  1.00  0.00     0.081 A 
ATOM      4  C2  UNK     1      45.997   1.894   7.654  1.00  0.00     0.095 A 
ATOM      5  C3  UNK     1      43.916   1.156   8.517  1.00  0.00     0.090 A 
ATOM      6  C5  UNK     1      45.913   0.814   9.870  1.00  0.00     0.190 A 
ATOM      7  C6  UNK     1      44.455   0.695   9.657  1.00  0.00     0.094 A 
ATOM      8  C7  UNK     1      48.061   1.610   8.887  1.00  0.00     0.085 A 
ATOM      9  C8  UNK     1      46.698   2.502   6.612  1.00  0.00     0.075 A 
ATOM     10  C9  UNK     1      48.080   2.664   6.708  1.00  0.00     0.071 A 
ATOM     11  C10 UNK     1      48.761   2.218   7.843  1.00  0.00     0.074 A 
ENDROOT
BRANCH   5  12
ATOM     12  C4  UNK     1      42.466   1.072   8.254  1.00  0.00    -0.002 A 
ATOM     13  C12 UNK     1      41.751  -0.071   8.617  1.00  0.00     0.017 A 
ATOM     14  C14 UNK     1      40.381  -0.149   8.368  1.00  0.00     0.037 A 
ATOM     15  C15 UNK     1      39.722   0.915   7.753  1.00  0.00     0.065 A 
ATOM     16  C13 UNK     1      40.433   2.058   7.388  1.00  0.00     0.037 A 
ATOM     17  C11 UNK     1      41.803   2.137   7.638  1.00  0.00     0.017 A 
BRANCH  15  18
ATOM     18  O5  UNK     1      38.385   0.838   7.509  1.00  0.00    -0.361 OA
ATOM     19  H10 UNK     1      37.954   0.393   8.259  1.00  0.00     0.217 HD
ENDBRANCH  15  18
ENDBRANCH   5  12
BRANCH   8  20
ATOM     20  O2  UNK     1      48.771   1.195   9.972  1.00  0.00    -0.360 OA
ATOM     21  H8  UNK     1      49.444   1.852  10.209  1.00  0.00     0.217 HD
ENDBRANCH   8  20
BRANCH  10  22
ATOM     22  O4  UNK     1      48.767   3.257   5.693  1.00  0.00    -0.361 OA
ATOM     23  H9  UNK     1      49.094   4.122   5.997  1.00  0.00     0.217 HD
ENDBRANCH  10  22
TORSDOF 4
ENDMDL
MODEL 5
REMARK VINA RESULT:      -5.9      1.285      2.848
REMARK  4 active torsions:
REMARK  status: ('A' for Active; 'I' for Inactive)
REMARK    1  A    between atoms: O2_2  and  C7_12 
REMARK    2  A    between atoms: O4_4  and  C9_14 
REMARK    3  A    between atoms: O5_5  and  C15_20 
REMARK    4  A    between atoms: C3_8  and  C4_9 
ROOT
ATOM      1  O1  UNK     1      43.500  -0.113   8.950  1.00  0.00    -0.309 OA
ATOM      2  O3  UNK     1      40.451   2.064   7.348  1.00  0.00    -0.287 OA
ATOM      3  C1  UNK     1      41.115   0.156   8.573  1.00  0.00     0.081 A 
ATOM      4  C2  UNK     1      42.204  -0.539   9.096  1.00  0.00     0.095 A 
ATOM      5  C3  UNK     1      43.734   1.057   8.243  1.00  0.00     0.090 A 
ATOM      6  C5  UNK     1      41.359   1.403   7.831  1.00  0.00     0.190 A 
ATOM      7  C6  UNK     1      42.770   1.817   7.699  1.00  0.00     0.094 A 
ATOM      8  C7  UNK     1      39.817  -0.325   8.754  1.00  0.00     0.085 A 
ATOM      9  C8  UNK     1      42.000  -1.722   9.806  1.00  0.00     0.075 A 
ATOM     10  C9  UNK     1      40.705  -2.207   9.990  1.00  0.00     0.071 A 
ATOM     11  C10 UNK     1      39.615  -1.510   9.464  1.00  0.00     0.074 A 
ENDROOT
BRANCH   5  12
ATOM     12  C4  UNK     1      45.160   1.426   8.150  1.00  0.00    -0.002 A 
ATOM     13  C12 UNK     1      46.058   1.013   9.137  1.00  0.00     0.017 A 
ATOM     14  C14 UNK     1      47.405   1.362   9.050  1.00  0.00     0.037 A 
ATOM     15  C15 UNK     1      47.860   2.127   7.975  1.00  0.00     0.065 A 
ATOM     16  C13 UNK     1      46.966   2.542   6.988  1.00  0.00     0.037 A 
ATOM     17  C11 UNK     1      45.619   2.192   7.075  1.00  0.00     0.017 A 
BRANCH  15  18
ATOM     18  O5  UNK     1      49.174   2.468   7.891  1.00  0.00    -0.361 OA
ATOM     19  H10 UNK     1      49.310   3.001   7.088  1.00  0.00     0.217 HD
ENDBRANCH  15  18
ENDBRANCH   5  12
BRANCH   8  20
ATOM     20  O2  UNK     1      38.720   0.317   8.263  1.00  0.00    -0.360 OA
ATOM     21  H8  UNK     1      38.374   0.945   8.917  1.00  0.00     0.217 HD
ENDBRANCH   8  20
BRANCH  10  22
ATOM     22  O4  UNK     1      40.502  -3.362  10.682  1.00  0.00    -0.361 OA
ATOM     23  H9  UNK     1      40.204  -3.142  11.581  1.00  0.00     0.217 HD
ENDBRANCH  10  22
TORSDOF 4
ENDMDL
MODEL 6
REMARK VINA RESULT:      -5.9      1.368      3.089
REMARK  4 active torsions:
REMARK  status: ('A' for Active; 'I' for Inactive)
REMARK    1  A    between atoms: O2_2  and  C7_12 
REMARK    2  A    between atoms: O4_4  and  C9_14 
REMARK    3  A    between atoms: O5_5  and  C15_20 
REMARK    4  A    between atoms: C3_8  and  C4_9 
ROOT
ATOM      1  O1  UNK     1      41.925  -0.451   8.485  1.00  0.00    -0.309 OA
ATOM      2  O3  UNK     1      39.272   2.313   7.099  1.00  0.00    -0.287 OA
ATOM      3  C1  UNK     1      39.634   0.128   7.922  1.00  0.00     0.081 A 
ATOM      4  C2  UNK     1      40.593  -0.768   8.389  1.00  0.00     0.095 A 
ATOM      5  C3  UNK     1      42.332   0.815   8.093  1.00  0.00     0.090 A 
ATOM      6  C5  UNK     1      40.060   1.476   7.515  1.00  0.00     0.190 A 
ATOM      7  C6  UNK     1      41.504   1.768   7.635  1.00  0.00     0.094 A 
ATOM      8  C7  UNK     1      38.291  -0.249   7.846  1.00  0.00     0.085 A 
ATOM      9  C8  UNK     1      40.215  -2.051   8.783  1.00  0.00     0.075 A 
ATOM     10  C9  UNK     1      38.875  -2.433   8.709  1.00  0.00     0.071 A 
ATOM     11  C10 UNK     1      37.915  -1.534   8.241  1.00  0.00     0.074 A 
ENDROOT
BRANCH   5  12
ATOM     12  C4  UNK     1      43.781   1.052   8.243  1.00  0.00    -0.002 A 
ATOM     13  C12 UNK     1      44.476   1.787   7.280  1.00  0.00     0.017 A 
ATOM     14  C14 UNK     1      45.845   2.009   7.422  1.00  0.00     0.037 A 
ATOM     15  C15 UNK     1      46.525   1.499   8.528  1.00  0.00     0.065 A 
ATOM     16  C13 UNK     1      45.834   0.764   9.492  1.00  0.00     0.037 A 
ATOM     17  C11 UNK     1      44.465   0.541   9.350  1.00  0.00     0.017 A 
BRANCH  15  18
ATOM     18  O5  UNK     1      47.861   1.715   8.666  1.00  0.00    -0.361 OA
ATOM     19  H10 UNK     1      48.094   1.655   9.608  1.00  0.00     0.217 HD
ENDBRANCH  15  18
ENDBRANCH   5  12
BRANCH   8  20
ATOM     20  O2  UNK     1      37.317   0.590   7.398  1.00  0.00    -0.360 OA
ATOM     21  H8  UNK     1      37.635   1.107   6.642  1.00  0.00     0.217 HD
ENDBRANCH   8  20
BRANCH  10  22
ATOM     22  O4  UNK     1      38.502  -3.685   9.094  1.00  0.00    -0.361 OA
ATOM     23  H9  UNK     1      38.307  -3.678  10.047  1.00  0.00     0.217 HD
ENDBRANCH  10  22
TORSDOF 4
ENDMDL
MODEL 7
REMARK VINA RESULT:      -5.9      2.116      7.077
REMARK  4 active torsions:
REMARK  status: ('A' for Active; 'I' for Inactive)
REMARK    1  A    between atoms: O2_2  and  C7_12 
REMARK    2  A    between atoms: O4_4  and  C9_14 
REMARK    3  A    between atoms: O5_5  and  C15_20 
REMARK    4  A    between atoms: C3_8  and  C4_9 
ROOT
ATOM      1  O1  UNK     1      43.579   1.793   7.471  1.00  0.00    -0.309 OA
ATOM      2  O3  UNK     1      43.967   4.834  10.155  1.00  0.00    -0.287 OA
ATOM      3  C1  UNK     1      45.000   3.442   8.549  1.00  0.00     0.081 A 
ATOM      4  C2  UNK     1      44.798   2.398   7.648  1.00  0.00     0.095 A 
ATOM      5  C3  UNK     1      42.505   2.236   8.229  1.00  0.00     0.090 A 
ATOM      6  C5  UNK     1      43.861   3.921   9.348  1.00  0.00     0.190 A 
ATOM      7  C6  UNK     1      42.572   3.236   9.123  1.00  0.00     0.094 A 
ATOM      8  C7  UNK     1      46.263   4.021   8.688  1.00  0.00     0.085 A 
ATOM      9  C8  UNK     1      45.860   1.927   6.877  1.00  0.00     0.075 A 
ATOM     10  C9  UNK     1      47.124   2.502   7.012  1.00  0.00     0.071 A 
ATOM     11  C10 UNK     1      47.325   3.547   7.916  1.00  0.00     0.074 A 
ENDROOT
BRANCH   5  12
ATOM     12  C4  UNK     1      41.243   1.521   7.955  1.00  0.00    -0.002 A 
ATOM     13  C12 UNK     1      40.168   2.194   7.370  1.00  0.00     0.017 A 
ATOM     14  C14 UNK     1      38.976   1.518   7.112  1.00  0.00     0.037 A 
ATOM     15  C15 UNK     1      38.853   0.168   7.439  1.00  0.00     0.065 A 
ATOM     16  C13 UNK     1      39.924  -0.507   8.025  1.00  0.00     0.037 A 
ATOM     17  C11 UNK     1      41.118   0.168   8.283  1.00  0.00     0.017 A 
BRANCH  15  18
ATOM     18  O5  UNK     1      37.690  -0.491   7.189  1.00  0.00    -0.361 OA
ATOM     19  H10 UNK     1      36.951   0.022   7.561  1.00  0.00     0.217 HD
ENDBRANCH  15  18
ENDBRANCH   5  12
BRANCH   8  20
ATOM     20  O2  UNK     1      46.512   5.043   9.553  1.00  0.00    -0.360 OA
ATOM     21  H8  UNK     1      47.060   4.736  10.292  1.00  0.00     0.217 HD
ENDBRANCH   8  20
BRANCH  10  22
ATOM     22  O4  UNK     1      48.163   2.044   6.261  1.00  0.00    -0.361 OA
ATOM     23  H9  UNK     1      48.718   2.798   5.997  1.00  0.00     0.217 HD
ENDBRANCH  10  22
TORSDOF 4
ENDMDL
MODEL 8
REMARK VINA RESULT:      -5.7      2.894      4.273
REMARK  4 active torsions:
REMARK  status: ('A' for Active; 'I' for Inactive)
REMARK    1  A    between atoms: O2_2  and  C7_12 
REMARK    2  A    between atoms: O4_4  and  C9_14 
REMARK    3  A    between atoms: O5_5  and  C15_20 
REMARK    4  A    between atoms: C3_8  and  C4_9 
ROOT
ATOM      1  O1  UNK     1      42.111   1.085   9.315  1.00  0.00    -0.309 OA
ATOM      2  O3  UNK     1      38.960   1.237   6.737  1.00  0.00    -0.287 OA
ATOM      3  C1  UNK     1      40.341  -0.081   8.129  1.00  0.00     0.081 A 
ATOM      4  C2  UNK     1      41.426  -0.062   9.003  1.00  0.00     0.095 A 
ATOM      5  C3  UNK     1      41.710   2.275   8.726  1.00  0.00     0.090 A 
ATOM      6  C5  UNK     1      39.905   1.181   7.510  1.00  0.00     0.190 A 
ATOM      7  C6  UNK     1      40.677   2.386   7.875  1.00  0.00     0.094 A 
ATOM      8  C7  UNK     1      39.679  -1.279   7.850  1.00  0.00     0.085 A 
ATOM      9  C8  UNK     1      41.857  -1.244   9.605  1.00  0.00     0.075 A 
ATOM     10  C9  UNK     1      41.200  -2.443   9.329  1.00  0.00     0.071 A 
ATOM     11  C10 UNK     1      40.113  -2.461   8.452  1.00  0.00     0.074 A 
ENDROOT
BRANCH   5  12
ATOM     12  C4  UNK     1      42.510   3.446   9.134  1.00  0.00    -0.002 A 
ATOM     13  C12 UNK     1      41.944   4.439   9.936  1.00  0.00     0.017 A 
ATOM     14  C14 UNK     1      42.701   5.545  10.321  1.00  0.00     0.037 A 
ATOM     15  C15 UNK     1      44.027   5.663   9.904  1.00  0.00     0.065 A 
ATOM     16  C13 UNK     1      44.596   4.674   9.101  1.00  0.00     0.037 A 
ATOM     17  C11 UNK     1      43.839   3.567   8.717  1.00  0.00     0.017 A 
BRANCH  15  18
ATOM     18  O5  UNK     1      44.765   6.743  10.278  1.00  0.00    -0.361 OA
ATOM     19  H10 UNK     1      44.240   7.285  10.893  1.00  0.00     0.217 HD
ENDBRANCH  15  18
ENDBRANCH   5  12
BRANCH   8  20
ATOM     20  O2  UNK     1      38.614  -1.350   7.004  1.00  0.00    -0.360 OA
ATOM     21  H8  UNK     1      37.803  -1.072   7.456  1.00  0.00     0.217 HD
ENDBRANCH   8  20
BRANCH  10  22
ATOM     22  O4  UNK     1      41.619  -3.599   9.914  1.00  0.00    -0.361 OA
ATOM     23  H9  UNK     1      41.843  -3.418  10.844  1.00  0.00     0.217 HD
ENDBRANCH  10  22
TORSDOF 4
ENDMDL
MODEL 9
REMARK VINA RESULT:      -5.7      3.223      3.904
REMARK  4 active torsions:
REMARK  status: ('A' for Active; 'I' for Inactive)
REMARK    1  A    between atoms: O2_2  and  C7_12 
REMARK    2  A    between atoms: O4_4  and  C9_14 
REMARK    3  A    between atoms: O5_5  and  C15_20 
REMARK    4  A    between atoms: C3_8  and  C4_9 
ROOT
ATOM      1  O1  UNK     1      40.987   2.120   8.686  1.00  0.00    -0.309 OA
ATOM      2  O3  UNK     1      43.467  -0.963   9.656  1.00  0.00    -0.287 OA
ATOM      3  C1  UNK     1      41.382  -0.275   8.783  1.00  0.00     0.081 A 
ATOM      4  C2  UNK     1      40.585   0.825   8.473  1.00  0.00     0.095 A 
ATOM      5  C3  UNK     1      42.238   2.340   9.241  1.00  0.00     0.090 A 
ATOM      6  C5  UNK     1      42.715  -0.045   9.363  1.00  0.00     0.190 A 
ATOM      7  C6  UNK     1      43.099   1.365   9.575  1.00  0.00     0.094 A 
ATOM      8  C7  UNK     1      40.922  -1.571   8.543  1.00  0.00     0.085 A 
ATOM      9  C8  UNK     1      39.319   0.635   7.920  1.00  0.00     0.075 A 
ATOM     10  C9  UNK     1      38.854  -0.658   7.679  1.00  0.00     0.071 A 
ATOM     11  C10 UNK     1      39.654  -1.760   7.991  1.00  0.00     0.074 A 
ENDROOT
BRANCH   5  12
ATOM     12  C4  UNK     1      42.571   3.767   9.422  1.00  0.00    -0.002 A 
ATOM     13  C12 UNK     1      41.605   4.659   9.892  1.00  0.00     0.017 A 
ATOM     14  C14 UNK     1      41.921   6.007  10.061  1.00  0.00     0.037 A 
ATOM     15  C15 UNK     1      43.203   6.468   9.761  1.00  0.00     0.065 A 
ATOM     16  C13 UNK     1      44.169   5.579   9.291  1.00  0.00     0.037 A 
ATOM     17  C11 UNK     1      43.855   4.231   9.121  1.00  0.00     0.017 A 
BRANCH  15  18
ATOM     18  O5  UNK     1      43.509   7.783   9.926  1.00  0.00    -0.361 OA
ATOM     19  H10 UNK     1      43.179   8.077  10.793  1.00  0.00     0.217 HD
ENDBRANCH  15  18
ENDBRANCH   5  12
BRANCH   8  20
ATOM     20  O2  UNK     1      41.663  -2.678   8.828  1.00  0.00    -0.360 OA
ATOM     21  H8  UNK     1      42.609  -2.481   8.755  1.00  0.00     0.217 HD
ENDBRANCH   8  20
BRANCH  10  22
ATOM     22  O4  UNK     1      37.618  -0.847   7.139  1.00  0.00    -0.361 OA
ATOM     23  H9  UNK     1      37.665  -0.687   6.181  1.00  0.00     0.217 HD
ENDBRANCH  10  22
TORSDOF 4
ENDMDL
MODEL 10
REMARK VINA RESULT:      -5.7      3.224      3.903
REMARK  4 active torsions:
REMARK  status: ('A' for Active; 'I' for Inactive)
REMARK    1  A    between atoms: O2_2  and  C7_12 
REMARK    2  A    between atoms: O4_4  and  C9_14 
REMARK    3  A    between atoms: O5_5  and  C15_20 
REMARK    4  A    between atoms: C3_8  and  C4_9 
ROOT
ATOM      1  O1  UNK     1      40.996   2.118   8.684  1.00  0.00    -0.309 OA
ATOM      2  O3  UNK     1      43.478  -0.960   9.665  1.00  0.00    -0.287 OA
ATOM      3  C1  UNK     1      41.394  -0.276   8.786  1.00  0.00     0.081 A 
ATOM      4  C2  UNK     1      40.596   0.822   8.473  1.00  0.00     0.095 A 
ATOM      5  C3  UNK     1      42.246   2.341   9.242  1.00  0.00     0.090 A 
ATOM      6  C5  UNK     1      42.725  -0.044   9.369  1.00  0.00     0.190 A 
ATOM      7  C6  UNK     1      43.107   1.368   9.579  1.00  0.00     0.094 A 
ATOM      8  C7  UNK     1      40.937  -1.574   8.548  1.00  0.00     0.085 A 
ATOM      9  C8  UNK     1      39.331   0.629   7.917  1.00  0.00     0.075 A 
ATOM     10  C9  UNK     1      38.869  -0.665   7.678  1.00  0.00     0.071 A 
ATOM     11  C10 UNK     1      39.670  -1.765   7.993  1.00  0.00     0.074 A 
ENDROOT
BRANCH   5  12
ATOM     12  C4  UNK     1      42.576   3.768   9.420  1.00  0.00    -0.002 A 
ATOM     13  C12 UNK     1      43.862   4.232   9.133  1.00  0.00     0.017 A 
ATOM     14  C14 UNK     1      44.174   5.581   9.303  1.00  0.00     0.037 A 
ATOM     15  C15 UNK     1      43.202   6.471   9.761  1.00  0.00     0.065 A 
ATOM     16  C13 UNK     1      41.917   6.010  10.049  1.00  0.00     0.037 A 
ATOM     17  C11 UNK     1      41.604   4.661   9.879  1.00  0.00     0.017 A 
BRANCH  15  18
ATOM     18  O5  UNK     1      43.507   7.786   9.927  1.00  0.00    -0.361 OA
ATOM     19  H10 UNK     1      43.366   8.251   9.084  1.00  0.00     0.217 HD
ENDBRANCH  15  18
ENDBRANCH   5  12
BRANCH   8  20
ATOM     20  O2  UNK     1      41.678  -2.679   8.836  1.00  0.00    -0.360 OA
ATOM     21  H8  UNK     1      41.124  -3.363   9.244  1.00  0.00     0.217 HD
ENDBRANCH   8  20
BRANCH  10  22
ATOM     22  O4  UNK     1      37.635  -0.857   7.136  1.00  0.00    -0.361 OA
ATOM     23  H9  UNK     1      37.526  -1.800   6.924  1.00  0.00     0.217 HD
ENDBRANCH  10  22
TORSDOF 4
ENDMDL
MODEL 11
REMARK VINA RESULT:      -5.7      1.334      1.615
REMARK  4 active torsions:
REMARK  status: ('A' for Active; 'I' for Inactive)
REMARK    1  A    between atoms: O2_2  and  C7_12 
REMARK    2  A    between atoms: O4_4  and  C9_14 
REMARK    3  A    between atoms: O5_5  and  C15_20 
REMARK    4  A    between atoms: C3_8  and  C4_9 
ROOT
ATOM      1  O1  UNK     1      41.596   0.388   8.212  1.00  0.00    -0.309 OA
ATOM      2  O3  UNK     1      41.547  -2.720  10.846  1.00  0.00    -0.287 OA
ATOM      3  C1  UNK     1      40.328  -1.322   9.381  1.00  0.00     0.081 A 
ATOM      4  C2  UNK     1      40.416  -0.254   8.491  1.00  0.00     0.095 A 
ATOM      5  C3  UNK     1      42.749  -0.041   8.853  1.00  0.00     0.090 A 
ATOM      6  C5  UNK     1      41.551  -1.787  10.055  1.00  0.00     0.190 A 
ATOM      7  C6  UNK     1      42.794  -1.062   9.724  1.00  0.00     0.094 A 
ATOM      8  C7  UNK     1      39.100  -1.940   9.626  1.00  0.00     0.085 A 
ATOM      9  C8  UNK     1      39.273   0.205   7.837  1.00  0.00     0.075 A 
ATOM     10  C9  UNK     1      38.043  -0.408   8.078  1.00  0.00     0.071 A 
ATOM     11  C10 UNK     1      37.956  -1.478   8.972  1.00  0.00     0.074 A 
ENDROOT
BRANCH   5  12
ATOM     12  C4  UNK     1      43.960   0.714   8.477  1.00  0.00    -0.002 A 
ATOM     13  C12 UNK     1      45.086   0.691   9.302  1.00  0.00     0.017 A 
ATOM     14  C14 UNK     1      46.230   1.405   8.947  1.00  0.00     0.037 A 
ATOM     15  C15 UNK     1      46.252   2.145   7.764  1.00  0.00     0.065 A 
ATOM     16  C13 UNK     1      45.129   2.171   6.938  1.00  0.00     0.037 A 
ATOM     17  C11 UNK     1      43.985   1.457   7.293  1.00  0.00     0.017 A 
BRANCH  15  18
ATOM     18  O5  UNK     1      47.368   2.843   7.419  1.00  0.00    -0.361 OA
ATOM     19  H10 UNK     1      47.201   3.792   7.556  1.00  0.00     0.217 HD
ENDBRANCH  15  18
ENDBRANCH   5  12
BRANCH   8  20
ATOM     20  O2  UNK     1      38.962  -2.986  10.486  1.00  0.00    -0.360 OA
ATOM     21  H8  UNK     1      38.538  -3.737  10.042  1.00  0.00     0.217 HD
ENDBRANCH   8  20
BRANCH  10  22
ATOM     22  O4  UNK     1      36.924   0.037   7.442  1.00  0.00    -0.361 OA
ATOM     23  H9  UNK     1      37.178   0.724   6.801  1.00  0.00     0.217 HD
ENDBRANCH  10  22
TORSDOF 4
ENDMDL
MODEL 12
REMARK VINA RESULT:      -5.7      6.860      9.755
REMARK  4 active torsions:
REMARK  status: ('A' for Active; 'I' for Inactive)
REMARK    1  A    between atoms: O2_2  and  C7_12 
REMARK    2  A    between atoms: O4_4  and  C9_14 
REMARK    3  A    between atoms: O5_5  and  C15_20 
REMARK    4  A    between atoms: C3_8  and  C4_9 
ROOT
ATOM      1  O1  UNK     1      37.945  -4.950   5.669  1.00  0.00    -0.309 OA
ATOM      2  O3  UNK     1      37.348  -6.146   9.518  1.00  0.00    -0.287 OA
ATOM      3  C1  UNK     1      37.856  -4.382   8.029  1.00  0.00     0.081 A 
ATOM      4  C2  UNK     1      38.046  -4.041   6.692  1.00  0.00     0.095 A 
ATOM      5  C3  UNK     1      37.648  -6.267   5.983  1.00  0.00     0.090 A 
ATOM      6  C5  UNK     1      37.531  -5.777   8.366  1.00  0.00     0.190 A 
ATOM      7  C6  UNK     1      37.436  -6.717   7.230  1.00  0.00     0.094 A 
ATOM      8  C7  UNK     1      37.970  -3.415   9.029  1.00  0.00     0.085 A 
ATOM      9  C8  UNK     1      38.353  -2.725   6.345  1.00  0.00     0.075 A 
ATOM     10  C9  UNK     1      38.469  -1.754   7.340  1.00  0.00     0.071 A 
ATOM     11  C10 UNK     1      38.278  -2.099   8.680  1.00  0.00     0.074 A 
ENDROOT
BRANCH   5  12
ATOM     12  C4  UNK     1      37.558  -7.158   4.810  1.00  0.00    -0.002 A 
ATOM     13  C12 UNK     1      38.545  -8.119   4.580  1.00  0.00     0.017 A 
ATOM     14  C14 UNK     1      38.459  -8.960   3.470  1.00  0.00     0.037 A 
ATOM     15  C15 UNK     1      37.386  -8.843   2.587  1.00  0.00     0.065 A 
ATOM     16  C13 UNK     1      36.399  -7.884   2.813  1.00  0.00     0.037 A 
ATOM     17  C11 UNK     1      36.484  -7.043   3.922  1.00  0.00     0.017 A 
BRANCH  15  18
ATOM     18  O5  UNK     1      37.303  -9.663   1.504  1.00  0.00    -0.361 OA
ATOM     19  H10 UNK     1      37.752  -9.238   0.753  1.00  0.00     0.217 HD
ENDBRANCH  15  18
ENDBRANCH   5  12
BRANCH   8  20
ATOM     20  O2  UNK     1      37.793  -3.698  10.349  1.00  0.00    -0.360 OA
ATOM     21  H8  UNK     1      37.255  -3.012  10.774  1.00  0.00     0.217 HD
ENDBRANCH   8  20
BRANCH  10  22
ATOM     22  O4  UNK     1      38.768  -0.469   7.005  1.00  0.00    -0.361 OA
ATOM     23  H9  UNK     1      39.125  -0.453   6.101  1.00  0.00     0.217 HD
ENDBRANCH  10  22
TORSDOF 4
ENDMDL
MODEL 13
REMARK VINA RESULT:      -5.7      4.812      6.515
REMARK  4 active torsions:
REMARK  status: ('A' for Active; 'I' for Inactive)
REMARK    1  A    between atoms: O2_2  and  C7_12 
REMARK    2  A    between atoms: O4_4  and  C9_14 
REMARK    3  A    between atoms: O5_5  and  C15_20 
REMARK    4  A    between atoms: C3_8  and  C4_9 
ROOT
ATOM      1  O1  UNK     1      38.354  -0.863   7.657  1.00  0.00    -0.309 OA
ATOM      2  O3  UNK     1      34.451  -1.502   8.636  1.00  0.00    -0.287 OA
ATOM      3  C1  UNK     1      36.381  -2.271   7.509  1.00  0.00     0.081 A 
ATOM      4  C2  UNK     1      37.713  -1.991   7.212  1.00  0.00     0.095 A 
ATOM      5  C3  UNK     1      37.640   0.042   8.429  1.00  0.00     0.090 A 
ATOM      6  C5  UNK     1      35.622  -1.319   8.335  1.00  0.00     0.190 A 
ATOM      7  C6  UNK     1      36.356  -0.119   8.787  1.00  0.00     0.094 A 
ATOM      8  C7  UNK     1      35.779  -3.436   7.029  1.00  0.00     0.085 A 
ATOM      9  C8  UNK     1      38.455  -2.878   6.432  1.00  0.00     0.075 A 
ATOM     10  C9  UNK     1      37.859  -4.044   5.951  1.00  0.00     0.071 A 
ATOM     11  C10 UNK     1      36.523  -4.322   6.248  1.00  0.00     0.074 A 
ENDROOT
BRANCH   5  12
ATOM     12  C4  UNK     1      38.426   1.215   8.858  1.00  0.00    -0.002 A 
ATOM     13  C12 UNK     1      39.350   1.798   7.988  1.00  0.00     0.017 A 
ATOM     14  C14 UNK     1      40.093   2.906   8.394  1.00  0.00     0.037 A 
ATOM     15  C15 UNK     1      39.914   3.436   9.672  1.00  0.00     0.065 A 
ATOM     16  C13 UNK     1      38.993   2.856  10.544  1.00  0.00     0.037 A 
ATOM     17  C11 UNK     1      38.249   1.748  10.138  1.00  0.00     0.017 A 
BRANCH  15  18
ATOM     18  O5  UNK     1      40.640   4.516  10.069  1.00  0.00    -0.361 OA
ATOM     19  H10 UNK     1      40.076   5.308  10.021  1.00  0.00     0.217 HD
ENDBRANCH  15  18
ENDBRANCH   5  12
BRANCH   8  20
ATOM     20  O2  UNK     1      34.481  -3.755   7.291  1.00  0.00    -0.360 OA
ATOM     21  H8  UNK     1      34.423  -4.635   7.694  1.00  0.00     0.217 HD
ENDBRANCH   8  20
BRANCH  10  22
ATOM     22  O4  UNK     1      38.580  -4.912   5.189  1.00  0.00    -0.361 OA
ATOM     23  H9  UNK     1      38.368  -5.822   5.461  1.00  0.00     0.217 HD
ENDBRANCH  10  22
TORSDOF 4
ENDMDL
MODEL 14
REMARK VINA RESULT:      -5.6      6.227      9.465
REMARK  4 active torsions:
REMARK  status: ('A' for Active; 'I' for Inactive)
REMARK    1  A    between atoms: O2_2  and  C7_12 
REMARK    2  A    between atoms: O4_4  and  C9_14 
REMARK    3  A    between atoms: O5_5  and  C15_20 
REMARK    4  A    between atoms: C3_8  and  C4_9 
ROOT
ATOM      1  O1  UNK     1      38.518  -4.425   5.964  1.00  0.00    -0.309 OA
ATOM      2  O3  UNK     1      34.982  -2.588   6.815  1.00  0.00    -0.287 OA
ATOM      3  C1  UNK     1      37.340  -2.558   6.977  1.00  0.00     0.081 A 
ATOM      4  C2  UNK     1      38.511  -3.238   6.652  1.00  0.00     0.095 A 
ATOM      5  C3  UNK     1      37.303  -4.974   5.583  1.00  0.00     0.090 A 
ATOM      6  C5  UNK     1      36.049  -3.132   6.566  1.00  0.00     0.190 A 
ATOM      7  C6  UNK     1      36.109  -4.411   5.830  1.00  0.00     0.094 A 
ATOM      8  C7  UNK     1      37.393  -1.352   7.679  1.00  0.00     0.085 A 
ATOM      9  C8  UNK     1      39.749  -2.715   7.028  1.00  0.00     0.075 A 
ATOM     10  C9  UNK     1      39.808  -1.510   7.730  1.00  0.00     0.071 A 
ATOM     11  C10 UNK     1      38.632  -0.830   8.055  1.00  0.00     0.074 A 
ENDROOT
BRANCH   5  12
ATOM     12  C4  UNK     1      37.424  -6.246   4.845  1.00  0.00    -0.002 A 
ATOM     13  C12 UNK     1      36.692  -6.451   3.673  1.00  0.00     0.017 A 
ATOM     14  C14 UNK     1      36.807  -7.654   2.976  1.00  0.00     0.037 A 
ATOM     15  C15 UNK     1      37.655  -8.656   3.448  1.00  0.00     0.065 A 
ATOM     16  C13 UNK     1      38.387  -8.455   4.618  1.00  0.00     0.037 A 
ATOM     17  C11 UNK     1      38.273  -7.252   5.315  1.00  0.00     0.017 A 
BRANCH  15  18
ATOM     18  O5  UNK     1      37.766  -9.829   2.769  1.00  0.00    -0.361 OA
ATOM     19  H10 UNK     1      37.134  -9.825   2.029  1.00  0.00     0.217 HD
ENDBRANCH  15  18
ENDBRANCH   5  12
BRANCH   8  20
ATOM     20  O2  UNK     1      36.277  -0.650   8.019  1.00  0.00    -0.360 OA
ATOM     21  H8  UNK     1      35.725  -1.164   8.629  1.00  0.00     0.217 HD
ENDBRANCH   8  20
BRANCH  10  22
ATOM     22  O4  UNK     1      41.014  -0.996   8.098  1.00  0.00    -0.361 OA
ATOM     23  H9  UNK     1      41.666  -1.717   8.134  1.00  0.00     0.217 HD
ENDBRANCH  10  22
TORSDOF 4
ENDMDL
MODEL 15
REMARK VINA RESULT:      -5.6      2.707      6.943
REMARK  4 active torsions:
REMARK  status: ('A' for Active; 'I' for Inactive)
REMARK    1  A    between atoms: O2_2  and  C7_12 
REMARK    2  A    between atoms: O4_4  and  C9_14 
REMARK    3  A    between atoms: O5_5  and  C15_20 
REMARK    4  A    between atoms: C3_8  and  C4_9 
ROOT
ATOM      1  O1  UNK     1      42.683   3.194   8.714  1.00  0.00    -0.309 OA
ATOM      2  O3  UNK     1      46.078   1.599   7.122  1.00  0.00    -0.287 OA
ATOM      3  C1  UNK     1      45.087   3.329   8.391  1.00  0.00     0.081 A 
ATOM      4  C2  UNK     1      43.889   3.819   8.907  1.00  0.00     0.095 A 
ATOM      5  C3  UNK     1      42.657   2.028   7.963  1.00  0.00     0.090 A 
ATOM      6  C5  UNK     1      45.065   2.087   7.603  1.00  0.00     0.190 A 
ATOM      7  C6  UNK     1      43.742   1.454   7.421  1.00  0.00     0.094 A 
ATOM      8  C7  UNK     1      46.286   4.007   8.620  1.00  0.00     0.085 A 
ATOM      9  C8  UNK     1      43.883   4.994   9.659  1.00  0.00     0.075 A 
ATOM     10  C9  UNK     1      45.078   5.675   9.892  1.00  0.00     0.071 A 
ATOM     11  C10 UNK     1      46.277   5.183   9.372  1.00  0.00     0.074 A 
ENDROOT
BRANCH   5  12
ATOM     12  C4  UNK     1      41.312   1.436   7.822  1.00  0.00    -0.002 A 
ATOM     13  C12 UNK     1      41.078   0.119   8.225  1.00  0.00     0.017 A 
ATOM     14  C14 UNK     1      39.807  -0.439   8.091  1.00  0.00     0.037 A 
ATOM     15  C15 UNK     1      38.766   0.316   7.553  1.00  0.00     0.065 A 
ATOM     16  C13 UNK     1      38.996   1.631   7.149  1.00  0.00     0.037 A 
ATOM     17  C11 UNK     1      40.266   2.191   7.283  1.00  0.00     0.017 A 
BRANCH  15  18
ATOM     18  O5  UNK     1      37.527  -0.230   7.422  1.00  0.00    -0.361 OA
ATOM     19  H10 UNK     1      36.976   0.055   8.172  1.00  0.00     0.217 HD
ENDBRANCH  15  18
ENDBRANCH   5  12
BRANCH   8  20
ATOM     20  O2  UNK     1      47.482   3.569   8.138  1.00  0.00    -0.360 OA
ATOM     21  H8  UNK     1      47.648   2.656   8.420  1.00  0.00     0.217 HD
ENDBRANCH   8  20
BRANCH  10  22
ATOM     22  O4  UNK     1      45.075   6.822  10.625  1.00  0.00    -0.361 OA
ATOM     23  H9  UNK     1      44.276   7.333  10.410  1.00  0.00     0.217 HD
ENDBRANCH  10  22
TORSDOF 4
ENDMDL
MODEL 16
REMARK VINA RESULT:      -5.6      2.665      8.837
REMARK  4 active torsions:
REMARK  status: ('A' for Active; 'I' for Inactive)
REMARK    1  A    between atoms: O2_2  and  C7_12 
REMARK    2  A    between atoms: O4_4  and  C9_14 
REMARK    3  A    between atoms: O5_5  and  C15_20 
REMARK    4  A    between atoms: C3_8  and  C4_9 
ROOT
ATOM      1  O1  UNK     1      47.978   1.648   9.540  1.00  0.00    -0.309 OA
ATOM      2  O3  UNK     1      49.754   3.995   6.723  1.00  0.00    -0.287 OA
ATOM      3  C1  UNK     1      49.939   2.871   8.793  1.00  0.00     0.081 A 
ATOM      4  C2  UNK     1      49.273   2.067   9.716  1.00  0.00     0.095 A 
ATOM      5  C3  UNK     1      47.303   2.051   8.398  1.00  0.00     0.090 A 
ATOM      6  C5  UNK     1      49.230   3.292   7.575  1.00  0.00     0.190 A 
ATOM      7  C6  UNK     1      47.838   2.817   7.434  1.00  0.00     0.094 A 
ATOM      8  C7  UNK     1      51.258   3.267   9.023  1.00  0.00     0.085 A 
ATOM      9  C8  UNK     1      49.923   1.653  10.878  1.00  0.00     0.075 A 
ATOM     10  C9  UNK     1      51.241   2.046  11.113  1.00  0.00     0.071 A 
ATOM     11  C10 UNK     1      51.907   2.852  10.187  1.00  0.00     0.074 A 
ENDROOT
BRANCH   5  12
ATOM     12  C4  UNK     1      45.921   1.540   8.306  1.00  0.00    -0.002 A 
ATOM     13  C12 UNK     1      45.376   0.799   9.357  1.00  0.00     0.017 A 
ATOM     14  C14 UNK     1      44.070   0.315   9.270  1.00  0.00     0.037 A 
ATOM     15  C15 UNK     1      43.305   0.572   8.132  1.00  0.00     0.065 A 
ATOM     16  C13 UNK     1      43.847   1.311   7.081  1.00  0.00     0.037 A 
ATOM     17  C11 UNK     1      45.152   1.795   7.167  1.00  0.00     0.017 A 
BRANCH  15  18
ATOM     18  O5  UNK     1      42.032   0.099   8.047  1.00  0.00    -0.361 OA
ATOM     19  H10 UNK     1      41.936  -0.656   8.653  1.00  0.00     0.217 HD
ENDBRANCH  15  18
ENDBRANCH   5  12
BRANCH   8  20
ATOM     20  O2  UNK     1      51.953   4.051   8.153  1.00  0.00    -0.360 OA
ATOM     21  H8  UNK     1      51.515   4.910   8.046  1.00  0.00     0.217 HD
ENDBRANCH   8  20
BRANCH  10  22
ATOM     22  O4  UNK     1      51.879   1.643  12.246  1.00  0.00    -0.361 OA
ATOM     23  H9  UNK     1      51.326   1.864  13.015  1.00  0.00     0.217 HD
ENDBRANCH  10  22
TORSDOF 4
ENDMDL
MODEL 17
REMARK VINA RESULT:      -5.6      1.043      1.395
REMARK  4 active torsions:
REMARK  status: ('A' for Active; 'I' for Inactive)
REMARK    1  A    between atoms: O2_2  and  C7_12 
REMARK    2  A    between atoms: O4_4  and  C9_14 
REMARK    3  A    between atoms: O5_5  and  C15_20 
REMARK    4  A    between atoms: C3_8  and  C4_9 
ROOT
ATOM      1  O1  UNK     1      42.746   1.793   7.819  1.00  0.00    -0.309 OA
ATOM      2  O3  UNK     1      42.126  -1.575  10.025  1.00  0.00    -0.287 OA
ATOM      3  C1  UNK     1      41.223   0.061   8.579  1.00  0.00     0.081 A 
ATOM      4  C2  UNK     1      41.504   1.211   7.845  1.00  0.00     0.095 A 
ATOM      5  C3  UNK     1      43.763   1.213   8.562  1.00  0.00     0.090 A 
ATOM      6  C5  UNK     1      42.301  -0.564   9.361  1.00  0.00     0.190 A 
ATOM      7  C6  UNK     1      43.619   0.101   9.302  1.00  0.00     0.094 A 
ATOM      8  C7  UNK     1      39.939  -0.489   8.569  1.00  0.00     0.085 A 
ATOM      9  C8  UNK     1      40.500   1.822   7.094  1.00  0.00     0.075 A 
ATOM     10  C9  UNK     1      39.215   1.277   7.080  1.00  0.00     0.071 A 
ATOM     11  C10 UNK     1      38.935   0.124   7.817  1.00  0.00     0.074 A 
ENDROOT
BRANCH   5  12
ATOM     12  C4  UNK     1      45.057   1.914   8.458  1.00  0.00    -0.002 A 
ATOM     13  C12 UNK     1      45.712   2.001   7.227  1.00  0.00     0.017 A 
ATOM     14  C14 UNK     1      46.935   2.664   7.129  1.00  0.00     0.037 A 
ATOM     15  C15 UNK     1      47.509   3.242   8.262  1.00  0.00     0.065 A 
ATOM     16  C13 UNK     1      46.858   3.156   9.493  1.00  0.00     0.037 A 
ATOM     17  C11 UNK     1      45.635   2.494   9.591  1.00  0.00     0.017 A 
BRANCH  15  18
ATOM     18  O5  UNK     1      48.702   3.887   8.166  1.00  0.00    -0.361 OA
ATOM     19  H10 UNK     1      49.251   3.651   8.934  1.00  0.00     0.217 HD
ENDBRANCH  15  18
ENDBRANCH   5  12
BRANCH   8  20
ATOM     20  O2  UNK     1      39.614  -1.611   9.268  1.00  0.00    -0.360 OA
ATOM     21  H8  UNK     1      39.899  -1.530  10.191  1.00  0.00     0.217 HD
ENDBRANCH   8  20
BRANCH  10  22
ATOM     22  O4  UNK     1      38.233   1.871   6.348  1.00  0.00    -0.361 OA
ATOM     23  H9  UNK     1      37.457   2.013   6.917  1.00  0.00     0.217 HD
ENDBRANCH  10  22
TORSDOF 4
ENDMDL
MODEL 18
REMARK VINA RESULT:      -5.6      4.531      5.841
REMARK  4 active torsions:
REMARK  status: ('A' for Active; 'I' for Inactive)
REMARK    1  A    between atoms: O2_2  and  C7_12 
REMARK    2  A    between atoms: O4_4  and  C9_14 
REMARK    3  A    between atoms: O5_5  and  C15_20 
REMARK    4  A    between atoms: C3_8  and  C4_9 
ROOT
ATOM      1  O1  UNK     1      38.876  -1.111   8.056  1.00  0.00    -0.309 OA
ATOM      2  O3  UNK     1      37.459  -3.357  11.145  1.00  0.00    -0.287 OA
ATOM      3  C1  UNK     1      37.994  -3.231   8.847  1.00  0.00     0.081 A 
ATOM      4  C2  UNK     1      38.488  -2.409   7.837  1.00  0.00     0.095 A 
ATOM      5  C3  UNK     1      38.762  -0.595   9.338  1.00  0.00     0.090 A 
ATOM      6  C5  UNK     1      37.881  -2.691  10.211  1.00  0.00     0.190 A 
ATOM      7  C6  UNK     1      38.308  -1.289  10.394  1.00  0.00     0.094 A 
ATOM      8  C7  UNK     1      37.615  -4.546   8.567  1.00  0.00     0.085 A 
ATOM      9  C8  UNK     1      38.607  -2.897   6.535  1.00  0.00     0.075 A 
ATOM     10  C9  UNK     1      38.230  -4.209   6.250  1.00  0.00     0.071 A 
ATOM     11  C10 UNK     1      37.734  -5.032   7.264  1.00  0.00     0.074 A 
ENDROOT
BRANCH   5  12
ATOM     12  C4  UNK     1      39.211   0.806   9.463  1.00  0.00    -0.002 A 
ATOM     13  C12 UNK     1      38.856   1.560  10.583  1.00  0.00     0.017 A 
ATOM     14  C14 UNK     1      39.280   2.883  10.700  1.00  0.00     0.037 A 
ATOM     15  C15 UNK     1      40.061   3.458   9.697  1.00  0.00     0.065 A 
ATOM     16  C13 UNK     1      40.416   2.708   8.576  1.00  0.00     0.037 A 
ATOM     17  C11 UNK     1      39.993   1.384   8.458  1.00  0.00     0.017 A 
BRANCH  15  18
ATOM     18  O5  UNK     1      40.473   4.749   9.811  1.00  0.00    -0.361 OA
ATOM     19  H10 UNK     1      40.460   5.002  10.751  1.00  0.00     0.217 HD
ENDBRANCH  15  18
ENDBRANCH   5  12
BRANCH   8  20
ATOM     20  O2  UNK     1      37.128  -5.389   9.518  1.00  0.00    -0.360 OA
ATOM     21  H8  UNK     1      37.764  -6.097   9.702  1.00  0.00     0.217 HD
ENDBRANCH   8  20
BRANCH  10  22
ATOM     22  O4  UNK     1      38.345  -4.689   4.981  1.00  0.00    -0.361 OA
ATOM     23  H9  UNK     1      37.961  -5.583   4.945  1.00  0.00     0.217 HD
ENDBRANCH  10  22
TORSDOF 4
ENDMDL
MODEL 19
REMARK VINA RESULT:      -5.5      2.775      3.825
REMARK  4 active torsions:
REMARK  status: ('A' for Active; 'I' for Inactive)
REMARK    1  A    between atoms: O2_2  and  C7_12 
REMARK    2  A    between atoms: O4_4  and  C9_14 
REMARK    3  A    between atoms: O5_5  and  C15_20 
REMARK    4  A    between atoms: C3_8  and  C4_9 
ROOT
ATOM      1  O1  UNK     1      44.300   2.511   8.247  1.00  0.00    -0.309 OA
ATOM      2  O3  UNK     1      42.362   5.502  10.222  1.00  0.00    -0.287 OA
ATOM      3  C1  UNK     1      42.232   3.390   9.170  1.00  0.00     0.081 A 
ATOM      4  C2  UNK     1      42.955   2.405   8.502  1.00  0.00     0.095 A 
ATOM      5  C3  UNK     1      44.963   3.654   8.668  1.00  0.00     0.090 A 
ATOM      6  C5  UNK     1      42.934   4.600   9.627  1.00  0.00     0.190 A 
ATOM      7  C6  UNK     1      44.379   4.668   9.327  1.00  0.00     0.094 A 
ATOM      8  C7  UNK     1      40.865   3.228   9.403  1.00  0.00     0.085 A 
ATOM      9  C8  UNK     1      42.314   1.248   8.060  1.00  0.00     0.075 A 
ATOM     10  C9  UNK     1      40.948   1.081   8.290  1.00  0.00     0.071 A 
ATOM     11  C10 UNK     1      40.224   2.070   8.959  1.00  0.00     0.074 A 
ENDROOT
BRANCH   5  12
ATOM     12  C4  UNK     1      46.404   3.662   8.348  1.00  0.00    -0.002 A 
ATOM     13  C12 UNK     1      46.895   2.884   7.298  1.00  0.00     0.017 A 
ATOM     14  C14 UNK     1      48.257   2.892   6.997  1.00  0.00     0.037 A 
ATOM     15  C15 UNK     1      49.133   3.678   7.746  1.00  0.00     0.065 A 
ATOM     16  C13 UNK     1      48.646   4.455   8.796  1.00  0.00     0.037 A 
ATOM     17  C11 UNK     1      47.284   4.448   9.097  1.00  0.00     0.017 A 
BRANCH  15  18
ATOM     18  O5  UNK     1      50.461   3.684   7.453  1.00  0.00    -0.361 OA
ATOM     19  H10 UNK     1      50.962   3.882   8.263  1.00  0.00     0.217 HD
ENDBRANCH  15  18
ENDBRANCH   5  12
BRANCH   8  20
ATOM     20  O2  UNK     1      40.114   4.161  10.051  1.00  0.00    -0.360 OA
ATOM     21  H8  UNK     1      40.096   4.991   9.550  1.00  0.00     0.217 HD
ENDBRANCH   8  20
BRANCH  10  22
ATOM     22  O4  UNK     1      40.319  -0.048   7.860  1.00  0.00    -0.361 OA
ATOM     23  H9  UNK     1      40.889  -0.500   7.214  1.00  0.00     0.217 HD
ENDBRANCH  10  22
TORSDOF 4
ENDMDL
MODEL 20
REMARK VINA RESULT:      -5.5      1.623      7.314
REMARK  4 active torsions:
REMARK  status: ('A' for Active; 'I' for Inactive)
REMARK    1  A    between atoms: O2_2  and  C7_12 
REMARK    2  A    between atoms: O4_4  and  C9_14 
REMARK    3  A    between atoms: O5_5  and  C15_20 
REMARK    4  A    between atoms: C3_8  and  C4_9 
ROOT
ATOM      1  O1  UNK     1      44.386   0.960   9.287  1.00  0.00    -0.309 OA
ATOM      2  O3  UNK     1      46.707   2.678   6.413  1.00  0.00    -0.287 OA
ATOM      3  C1  UNK     1      46.590   1.658   8.541  1.00  0.00     0.081 A 
ATOM      4  C2  UNK     1      45.740   1.080   9.481  1.00  0.00     0.095 A 
ATOM      5  C3  UNK     1      43.843   1.444   8.106  1.00  0.00     0.090 A 
ATOM      6  C5  UNK     1      46.019   2.163   7.282  1.00  0.00     0.190 A 
ATOM      7  C6  UNK     1      44.558   2.013   7.123  1.00  0.00     0.094 A 
ATOM      8  C7  UNK     1      47.961   1.752   8.791  1.00  0.00     0.085 A 
ATOM      9  C8  UNK     1      46.256   0.592  10.681  1.00  0.00     0.075 A 
ATOM     10  C9  UNK     1      47.624   0.684  10.937  1.00  0.00     0.071 A 
ATOM     11  C10 UNK     1      48.475   1.264   9.994  1.00  0.00     0.074 A 
ENDROOT
BRANCH   5  12
ATOM     12  C4  UNK     1      42.383   1.259   7.999  1.00  0.00    -0.002 A 
ATOM     13  C12 UNK     1      41.587   2.264   7.443  1.00  0.00     0.017 A 
ATOM     14  C14 UNK     1      40.207   2.089   7.343  1.00  0.00     0.037 A 
ATOM     15  C15 UNK     1      39.618   0.909   7.797  1.00  0.00     0.065 A 
ATOM     16  C13 UNK     1      40.409  -0.095   8.353  1.00  0.00     0.037 A 
ATOM     17  C11 UNK     1      41.789   0.078   8.454  1.00  0.00     0.017 A 
BRANCH  15  18
ATOM     18  O5  UNK     1      38.271   0.740   7.699  1.00  0.00    -0.361 OA
ATOM     19  H10 UNK     1      38.089  -0.164   7.389  1.00  0.00     0.217 HD
ENDBRANCH  15  18
ENDBRANCH   5  12
BRANCH   8  20
ATOM     20  O2  UNK     1      48.833   2.307   7.905  1.00  0.00    -0.360 OA
ATOM     21  H8  UNK     1      49.729   1.966   8.052  1.00  0.00     0.217 HD
ENDBRANCH   8  20
BRANCH  10  22
ATOM     22  O4  UNK     1      48.131   0.208  12.107  1.00  0.00    -0.361 OA
ATOM     23  H9  UNK     1      49.082   0.409  12.144  1.00  0.00     0.217 HD
ENDBRANCH  10  22
TORSDOF 4
ENDMDL
