MODEL 1
REMARK VINA RESULT:      -7.9      0.000      0.000
REMARK  4 active torsions:
REMARK  status: ('A' for Active; 'I' for Inactive)
REMARK    1  A    between atoms: O2_2  and  C7_12 
REMARK    2  A    between atoms: O4_4  and  C9_14 
REMARK    3  A    between atoms: O5_5  and  C15_20 
REMARK    4  A    between atoms: C3_8  and  C4_9 
ROOT
ATOM      1  O1  UNK     1      39.727  15.572  -0.052  1.00  0.00    -0.309 OA
ATOM      2  O3  UNK     1      41.134  16.576  -3.741  1.00  0.00    -0.287 OA
ATOM      3  C1  UNK     1      39.999  17.254  -1.782  1.00  0.00     0.081 A 
ATOM      4  C2  UNK     1      39.544  16.845  -0.531  1.00  0.00     0.095 A 
ATOM      5  C3  UNK     1      40.385  14.652  -0.854  1.00  0.00     0.090 A 
ATOM      6  C5  UNK     1      40.707  16.285  -2.633  1.00  0.00     0.190 A 
ATOM      7  C6  UNK     1      40.875  14.928  -2.074  1.00  0.00     0.094 A 
ATOM      8  C7  UNK     1      39.786  18.564  -2.218  1.00  0.00     0.085 A 
ATOM      9  C8  UNK     1      38.872  17.745   0.296  1.00  0.00     0.075 A 
ATOM     10  C9  UNK     1      38.657  19.055  -0.134  1.00  0.00     0.071 A 
ATOM     11  C10 UNK     1      39.112  19.463  -1.390  1.00  0.00     0.074 A 
ENDROOT
BRANCH   5  12
ATOM     12  C4  UNK     1      40.531  13.318  -0.241  1.00  0.00    -0.002 A 
ATOM     13  C12 UNK     1      41.041  12.254  -0.988  1.00  0.00     0.017 A 
ATOM     14  C14 UNK     1      41.178  10.993  -0.408  1.00  0.00     0.037 A 
ATOM     15  C15 UNK     1      40.806  10.791   0.921  1.00  0.00     0.065 A 
ATOM     16  C13 UNK     1      40.296  11.851   1.670  1.00  0.00     0.037 A 
ATOM     17  C11 UNK     1      40.159  13.113   1.091  1.00  0.00     0.017 A 
BRANCH  15  18
ATOM     18  O5  UNK     1      40.940   9.561   1.486  1.00  0.00    -0.361 OA
ATOM     19  H10 UNK     1      40.058   9.229   1.730  1.00  0.00     0.217 HD
ENDBRANCH  15  18
ENDBRANCH   5  12
BRANCH   8  20
ATOM     20  O2  UNK     1      40.210  19.013  -3.432  1.00  0.00    -0.360 OA
ATOM     21  H8  UNK     1      41.176  19.103  -3.442  1.00  0.00     0.217 HD
ENDBRANCH   8  20
BRANCH  10  22
ATOM     22  O4  UNK     1      38.001  19.936   0.670  1.00  0.00    -0.361 OA
ATOM     23  H9  UNK     1      37.207  20.255   0.208  1.00  0.00     0.217 HD
ENDBRANCH  10  22
TORSDOF 4
ENDMDL
MODEL 2
REMARK VINA RESULT:      -7.9      0.004      1.080
REMARK  4 active torsions:
REMARK  status: ('A' for Active; 'I' for Inactive)
REMARK    1  A    between atoms: O2_2  and  C7_12 
REMARK    2  A    between atoms: O4_4  and  C9_14 
REMARK    3  A    between atoms: O5_5  and  C15_20 
REMARK    4  A    between atoms: C3_8  and  C4_9 
ROOT
ATOM      1  O1  UNK     1      39.725  15.571  -0.053  1.00  0.00    -0.309 OA
ATOM      2  O3  UNK     1      41.134  16.575  -3.742  1.00  0.00    -0.287 OA
ATOM      3  C1  UNK     1      39.998  17.253  -1.784  1.00  0.00     0.081 A 
ATOM      4  C2  UNK     1      39.543  16.844  -0.532  1.00  0.00     0.095 A 
ATOM      5  C3  UNK     1      40.383  14.651  -0.856  1.00  0.00     0.090 A 
ATOM      6  C5  UNK     1      40.706  16.283  -2.634  1.00  0.00     0.190 A 
ATOM      7  C6  UNK     1      40.873  14.926  -2.075  1.00  0.00     0.094 A 
ATOM      8  C7  UNK     1      39.787  18.563  -2.220  1.00  0.00     0.085 A 
ATOM      9  C8  UNK     1      38.872  17.745   0.294  1.00  0.00     0.075 A 
ATOM     10  C9  UNK     1      38.657  19.054  -0.136  1.00  0.00     0.071 A 
ATOM     11  C10 UNK     1      39.113  19.463  -1.391  1.00  0.00     0.074 A 
ENDROOT
BRANCH   5  12
ATOM     12  C4  UNK     1      40.528  13.316  -0.243  1.00  0.00    -0.002 A 
ATOM     13  C12 UNK     1      40.152  13.110   1.086  1.00  0.00     0.017 A 
ATOM     14  C14 UNK     1      40.291  11.848   1.665  1.00  0.00     0.037 A 
ATOM     15  C15 UNK     1      40.806  10.789   0.918  1.00  0.00     0.065 A 
ATOM     16  C13 UNK     1      41.183  10.993  -0.410  1.00  0.00     0.037 A 
ATOM     17  C11 UNK     1      41.045  12.254  -0.990  1.00  0.00     0.017 A 
BRANCH  15  18
ATOM     18  O5  UNK     1      40.941   9.560   1.483  1.00  0.00    -0.361 OA
ATOM     19  H10 UNK     1      40.681   8.884   0.833  1.00  0.00     0.217 HD
ENDBRANCH  15  18
ENDBRANCH   5  12
BRANCH   8  20
ATOM     20  O2  UNK     1      40.212  19.012  -3.433  1.00  0.00    -0.360 OA
ATOM     21  H8  UNK     1      40.318  18.272  -4.050  1.00  0.00     0.217 HD
ENDBRANCH   8  20
BRANCH  10  22
ATOM     22  O4  UNK     1      38.002  19.936   0.668  1.00  0.00    -0.361 OA
ATOM     23  H9  UNK     1      38.615  20.647   0.923  1.00  0.00     0.217 HD
ENDBRANCH  10  22
TORSDOF 4
ENDMDL
MODEL 3
REMARK VINA RESULT:      -6.8      1.251      2.803
REMARK  4 active torsions:
REMARK  status: ('A' for Active; 'I' for Inactive)
REMARK    1  A    between atoms: O2_2  and  C7_12 
REMARK    2  A    between atoms: O4_4  and  C9_14 
REMARK    3  A    between atoms: O5_5  and  C15_20 
REMARK    4  A    between atoms: C3_8  and  C4_9 
ROOT
ATOM      1  O1  UNK     1      40.586  15.178  -1.909  1.00  0.00    -0.309 OA
ATOM      2  O3  UNK     1      38.865  18.082   0.372  1.00  0.00    -0.287 OA
ATOM      3  C1  UNK     1      39.848  17.482  -1.691  1.00  0.00     0.081 A 
ATOM      4  C2  UNK     1      40.427  16.443  -2.417  1.00  0.00     0.095 A 
ATOM      5  C3  UNK     1      40.159  14.928  -0.614  1.00  0.00     0.090 A 
ATOM      6  C5  UNK     1      39.384  17.218  -0.320  1.00  0.00     0.190 A 
ATOM      7  C6  UNK     1      39.580  15.842   0.181  1.00  0.00     0.094 A 
ATOM      8  C7  UNK     1      39.710  18.750  -2.259  1.00  0.00     0.085 A 
ATOM      9  C8  UNK     1      40.873  16.666  -3.720  1.00  0.00     0.075 A 
ATOM     10  C9  UNK     1      40.737  17.931  -4.292  1.00  0.00     0.071 A 
ATOM     11  C10 UNK     1      40.158  18.972  -3.563  1.00  0.00     0.074 A 
ENDROOT
BRANCH   5  12
ATOM     12  C4  UNK     1      40.372  13.536  -0.170  1.00  0.00    -0.002 A 
ATOM     13  C12 UNK     1      40.822  12.572  -1.075  1.00  0.00     0.017 A 
ATOM     14  C14 UNK     1      41.023  11.257  -0.656  1.00  0.00     0.037 A 
ATOM     15  C15 UNK     1      40.775  10.902   0.670  1.00  0.00     0.065 A 
ATOM     16  C13 UNK     1      40.325  11.862   1.576  1.00  0.00     0.037 A 
ATOM     17  C11 UNK     1      40.124  13.177   1.157  1.00  0.00     0.017 A 
BRANCH  15  18
ATOM     18  O5  UNK     1      40.970   9.619   1.078  1.00  0.00    -0.361 OA
ATOM     19  H10 UNK     1      40.134   9.271   1.435  1.00  0.00     0.217 HD
ENDBRANCH  15  18
ENDBRANCH   5  12
BRANCH   8  20
ATOM     20  O2  UNK     1      39.151  19.797  -1.592  1.00  0.00    -0.360 OA
ATOM     21  H8  UNK     1      39.089  19.602  -0.645  1.00  0.00     0.217 HD
ENDBRANCH   8  20
BRANCH  10  22
ATOM     22  O4  UNK     1      41.172  18.152  -5.563  1.00  0.00    -0.361 OA
ATOM     23  H9  UNK     1      41.553  17.329  -5.915  1.00  0.00     0.217 HD
ENDBRANCH  10  22
TORSDOF 4
ENDMDL
MODEL 4
REMARK VINA RESULT:      -6.7      1.477      6.574
REMARK  4 active torsions:
REMARK  status: ('A' for Active; 'I' for Inactive)
REMARK    1  A    between atoms: O2_2  and  C7_12 
REMARK    2  A    between atoms: O4_4  and  C9_14 
REMARK    3  A    between atoms: O5_5  and  C15_20 
REMARK    4  A    between atoms: C3_8  and  C4_9 
ROOT
ATOM      1  O1  UNK     1      39.647  14.633   0.108  1.00  0.00    -0.309 OA
ATOM      2  O3  UNK     1      42.266  13.273  -2.701  1.00  0.00    -0.287 OA
ATOM      3  C1  UNK     1      40.925  12.786  -0.817  1.00  0.00     0.081 A 
ATOM      4  C2  UNK     1      40.033  13.316   0.113  1.00  0.00     0.095 A 
ATOM      5  C3  UNK     1      40.176  15.473  -0.860  1.00  0.00     0.090 A 
ATOM      6  C5  UNK     1      41.481  13.672  -1.853  1.00  0.00     0.190 A 
ATOM      7  C6  UNK     1      41.037  15.080  -1.813  1.00  0.00     0.094 A 
ATOM      8  C7  UNK     1      41.281  11.437  -0.766  1.00  0.00     0.085 A 
ATOM      9  C8  UNK     1      39.490  12.498   1.103  1.00  0.00     0.075 A 
ATOM     10  C9  UNK     1      39.843  11.149   1.159  1.00  0.00     0.071 A 
ATOM     11  C10 UNK     1      40.738  10.620   0.227  1.00  0.00     0.074 A 
ENDROOT
BRANCH   5  12
ATOM     12  C4  UNK     1      39.691  16.864  -0.777  1.00  0.00    -0.002 A 
ATOM     13  C12 UNK     1      40.008  17.780  -1.782  1.00  0.00     0.017 A 
ATOM     14  C14 UNK     1      39.550  19.095  -1.703  1.00  0.00     0.037 A 
ATOM     15  C15 UNK     1      38.772  19.499  -0.617  1.00  0.00     0.065 A 
ATOM     16  C13 UNK     1      38.454  18.587   0.389  1.00  0.00     0.037 A 
ATOM     17  C11 UNK     1      38.912  17.272   0.310  1.00  0.00     0.017 A 
BRANCH  15  18
ATOM     18  O5  UNK     1      38.326  20.782  -0.539  1.00  0.00    -0.361 OA
ATOM     19  H10 UNK     1      38.060  20.967   0.378  1.00  0.00     0.217 HD
ENDBRANCH  15  18
ENDBRANCH   5  12
BRANCH   8  20
ATOM     20  O2  UNK     1      42.148  10.872  -1.651  1.00  0.00    -0.360 OA
ATOM     21  H8  UNK     1      43.064  11.012  -1.366  1.00  0.00     0.217 HD
ENDBRANCH   8  20
BRANCH  10  22
ATOM     22  O4  UNK     1      39.315  10.347   2.125  1.00  0.00    -0.361 OA
ATOM     23  H9  UNK     1      39.369  10.806   2.981  1.00  0.00     0.217 HD
ENDBRANCH  10  22
TORSDOF 4
ENDMDL
MODEL 5
REMARK VINA RESULT:      -5.6      9.622     11.877
REMARK  4 active torsions:
REMARK  status: ('A' for Active; 'I' for Inactive)
REMARK    1  A    between atoms: O2_2  and  C7_12 
REMARK    2  A    between atoms: O4_4  and  C9_14 
REMARK    3  A    between atoms: O5_5  and  C15_20 
REMARK    4  A    between atoms: C3_8  and  C4_9 
ROOT
ATOM      1  O1  UNK     1      45.837  11.281  -7.705  1.00  0.00    -0.309 OA
ATOM      2  O3  UNK     1      48.200   8.376  -9.309  1.00  0.00    -0.287 OA
ATOM      3  C1  UNK     1      46.073   9.403  -9.226  1.00  0.00     0.081 A 
ATOM      4  C2  UNK     1      45.322  10.418  -8.639  1.00  0.00     0.095 A 
ATOM      5  C3  UNK     1      47.162  11.129  -7.324  1.00  0.00     0.090 A 
ATOM      6  C5  UNK     1      47.482   9.243  -8.833  1.00  0.00     0.190 A 
ATOM      7  C6  UNK     1      47.988  10.195  -7.823  1.00  0.00     0.094 A 
ATOM      8  C7  UNK     1      45.497   8.553 -10.173  1.00  0.00     0.085 A 
ATOM      9  C8  UNK     1      43.985  10.592  -8.996  1.00  0.00     0.075 A 
ATOM     10  C9  UNK     1      43.404   9.746  -9.941  1.00  0.00     0.071 A 
ATOM     11  C10 UNK     1      44.158   8.728 -10.528  1.00  0.00     0.074 A 
ENDROOT
BRANCH   5  12
ATOM     12  C4  UNK     1      47.614  12.111  -6.320  1.00  0.00    -0.002 A 
ATOM     13  C12 UNK     1      47.534  11.812  -4.959  1.00  0.00     0.017 A 
ATOM     14  C14 UNK     1      47.961  12.741  -4.010  1.00  0.00     0.037 A 
ATOM     15  C15 UNK     1      48.470  13.974  -4.420  1.00  0.00     0.065 A 
ATOM     16  C13 UNK     1      48.550  14.277  -5.779  1.00  0.00     0.037 A 
ATOM     17  C11 UNK     1      48.124  13.347  -6.728  1.00  0.00     0.017 A 
BRANCH  15  18
ATOM     18  O5  UNK     1      48.885  14.880  -3.495  1.00  0.00    -0.361 OA
ATOM     19  H10 UNK     1      48.431  15.725  -3.656  1.00  0.00     0.217 HD
ENDBRANCH  15  18
ENDBRANCH   5  12
BRANCH   8  20
ATOM     20  O2  UNK     1      46.189   7.547 -10.775  1.00  0.00    -0.360 OA
ATOM     21  H8  UNK     1      46.884   7.908 -11.347  1.00  0.00     0.217 HD
ENDBRANCH   8  20
BRANCH  10  22
ATOM     22  O4  UNK     1      42.099   9.912 -10.292  1.00  0.00    -0.361 OA
ATOM     23  H9  UNK     1      41.628   9.069 -10.169  1.00  0.00     0.217 HD
ENDBRANCH  10  22
TORSDOF 4
ENDMDL
MODEL 6
REMARK VINA RESULT:      -5.6      9.612     11.857
REMARK  4 active torsions:
REMARK  status: ('A' for Active; 'I' for Inactive)
REMARK    1  A    between atoms: O2_2  and  C7_12 
REMARK    2  A    between atoms: O4_4  and  C9_14 
REMARK    3  A    between atoms: O5_5  and  C15_20 
REMARK    4  A    between atoms: C3_8  and  C4_9 
ROOT
ATOM      1  O1  UNK     1      45.836  11.279  -7.710  1.00  0.00    -0.309 OA
ATOM      2  O3  UNK     1      48.215   8.405  -9.347  1.00  0.00    -0.287 OA
ATOM      3  C1  UNK     1      46.081   9.414  -9.247  1.00  0.00     0.081 A 
ATOM      4  C2  UNK     1      45.323  10.419  -8.649  1.00  0.00     0.095 A 
ATOM      5  C3  UNK     1      47.164  11.134  -7.337  1.00  0.00     0.090 A 
ATOM      6  C5  UNK     1      47.493   9.263  -8.861  1.00  0.00     0.190 A 
ATOM      7  C6  UNK     1      47.995  10.212  -7.846  1.00  0.00     0.094 A 
ATOM      8  C7  UNK     1      45.507   8.567 -10.197  1.00  0.00     0.085 A 
ATOM      9  C8  UNK     1      43.983  10.584  -8.998  1.00  0.00     0.075 A 
ATOM     10  C9  UNK     1      43.405   9.741  -9.947  1.00  0.00     0.071 A 
ATOM     11  C10 UNK     1      44.165   8.733 -10.545  1.00  0.00     0.074 A 
ENDROOT
BRANCH   5  12
ATOM     12  C4  UNK     1      47.613  12.113  -6.328  1.00  0.00    -0.002 A 
ATOM     13  C12 UNK     1      48.138  13.344  -6.728  1.00  0.00     0.017 A 
ATOM     14  C14 UNK     1      48.562  14.268  -5.773  1.00  0.00     0.037 A 
ATOM     15  C15 UNK     1      48.464  13.965  -4.415  1.00  0.00     0.065 A 
ATOM     16  C13 UNK     1      47.940  12.737  -4.012  1.00  0.00     0.037 A 
ATOM     17  C11 UNK     1      47.515  11.812  -4.966  1.00  0.00     0.017 A 
BRANCH  15  18
ATOM     18  O5  UNK     1      48.879  14.867  -3.485  1.00  0.00    -0.361 OA
ATOM     19  H10 UNK     1      48.170  14.992  -2.830  1.00  0.00     0.217 HD
ENDBRANCH  15  18
ENDBRANCH   5  12
BRANCH   8  20
ATOM     20  O2  UNK     1      46.204   7.571 -10.811  1.00  0.00    -0.360 OA
ATOM     21  H8  UNK     1      46.636   7.004 -10.153  1.00  0.00     0.217 HD
ENDBRANCH   8  20
BRANCH  10  22
ATOM     22  O4  UNK     1      42.097   9.899 -10.291  1.00  0.00    -0.361 OA
ATOM     23  H9  UNK     1      41.564   9.969  -9.480  1.00  0.00     0.217 HD
ENDBRANCH  10  22
TORSDOF 4
ENDMDL
MODEL 7
REMARK VINA RESULT:      -5.5     10.249     13.137
REMARK  4 active torsions:
REMARK  status: ('A' for Active; 'I' for Inactive)
REMARK    1  A    between atoms: O2_2  and  C7_12 
REMARK    2  A    between atoms: O4_4  and  C9_14 
REMARK    3  A    between atoms: O5_5  and  C15_20 
REMARK    4  A    between atoms: C3_8  and  C4_9 
ROOT
ATOM      1  O1  UNK     1      48.420   9.747  -6.965  1.00  0.00    -0.309 OA
ATOM      2  O3  UNK     1      46.102  10.078 -10.299  1.00  0.00    -0.287 OA
ATOM      3  C1  UNK     1      47.522   8.728  -8.978  1.00  0.00     0.081 A 
ATOM      4  C2  UNK     1      48.297   8.682  -7.821  1.00  0.00     0.095 A 
ATOM      5  C3  UNK     1      47.751  10.922  -7.271  1.00  0.00     0.090 A 
ATOM      6  C5  UNK     1      46.801   9.969  -9.302  1.00  0.00     0.190 A 
ATOM      7  C6  UNK     1      46.969  11.087  -8.350  1.00  0.00     0.094 A 
ATOM      8  C7  UNK     1      47.431   7.612  -9.813  1.00  0.00     0.085 A 
ATOM      9  C8  UNK     1      48.988   7.517  -7.491  1.00  0.00     0.075 A 
ATOM     10  C9  UNK     1      48.902   6.399  -8.321  1.00  0.00     0.071 A 
ATOM     11  C10 UNK     1      48.125   6.447  -9.481  1.00  0.00     0.074 A 
ENDROOT
BRANCH   5  12
ATOM     12  C4  UNK     1      47.948  12.000  -6.282  1.00  0.00    -0.002 A 
ATOM     13  C12 UNK     1      47.750  11.750  -4.923  1.00  0.00     0.017 A 
ATOM     14  C14 UNK     1      47.936  12.769  -3.989  1.00  0.00     0.037 A 
ATOM     15  C15 UNK     1      48.320  14.042  -4.411  1.00  0.00     0.065 A 
ATOM     16  C13 UNK     1      48.517  14.295  -5.769  1.00  0.00     0.037 A 
ATOM     17  C11 UNK     1      48.332  13.276  -6.703  1.00  0.00     0.017 A 
BRANCH  15  18
ATOM     18  O5  UNK     1      48.500  15.036  -3.500  1.00  0.00    -0.361 OA
ATOM     19  H10 UNK     1      48.306  14.688  -2.612  1.00  0.00     0.217 HD
ENDBRANCH  15  18
ENDBRANCH   5  12
BRANCH   8  20
ATOM     20  O2  UNK     1      46.688   7.606 -10.954  1.00  0.00    -0.360 OA
ATOM     21  H8  UNK     1      45.902   8.165 -10.850  1.00  0.00     0.217 HD
ENDBRANCH   8  20
BRANCH  10  22
ATOM     22  O4  UNK     1      49.575   5.260  -8.002  1.00  0.00    -0.361 OA
ATOM     23  H9  UNK     1      48.943   4.606  -7.657  1.00  0.00     0.217 HD
ENDBRANCH  10  22
TORSDOF 4
ENDMDL
MODEL 8
REMARK VINA RESULT:      -5.5     10.248     13.113
REMARK  4 active torsions:
REMARK  status: ('A' for Active; 'I' for Inactive)
REMARK    1  A    between atoms: O2_2  and  C7_12 
REMARK    2  A    between atoms: O4_4  and  C9_14 
REMARK    3  A    between atoms: O5_5  and  C15_20 
REMARK    4  A    between atoms: C3_8  and  C4_9 
ROOT
ATOM      1  O1  UNK     1      48.418   9.752  -6.966  1.00  0.00    -0.309 OA
ATOM      2  O3  UNK     1      46.102  10.081 -10.301  1.00  0.00    -0.287 OA
ATOM      3  C1  UNK     1      47.521   8.731  -8.979  1.00  0.00     0.081 A 
ATOM      4  C2  UNK     1      48.295   8.686  -7.822  1.00  0.00     0.095 A 
ATOM      5  C3  UNK     1      47.748  10.926  -7.273  1.00  0.00     0.090 A 
ATOM      6  C5  UNK     1      46.800   9.972  -9.304  1.00  0.00     0.190 A 
ATOM      7  C6  UNK     1      46.967  11.091  -8.353  1.00  0.00     0.094 A 
ATOM      8  C7  UNK     1      47.432   7.615  -9.814  1.00  0.00     0.085 A 
ATOM      9  C8  UNK     1      48.987   7.521  -7.490  1.00  0.00     0.075 A 
ATOM     10  C9  UNK     1      48.901   6.403  -8.321  1.00  0.00     0.071 A 
ATOM     11  C10 UNK     1      48.125   6.451  -9.481  1.00  0.00     0.074 A 
ENDROOT
BRANCH   5  12
ATOM     12  C4  UNK     1      47.945  12.004  -6.284  1.00  0.00    -0.002 A 
ATOM     13  C12 UNK     1      48.327  13.281  -6.704  1.00  0.00     0.017 A 
ATOM     14  C14 UNK     1      48.513  14.299  -5.769  1.00  0.00     0.037 A 
ATOM     15  C15 UNK     1      48.317  14.045  -4.411  1.00  0.00     0.065 A 
ATOM     16  C13 UNK     1      47.937  12.771  -3.989  1.00  0.00     0.037 A 
ATOM     17  C11 UNK     1      47.750  11.752  -4.923  1.00  0.00     0.017 A 
BRANCH  15  18
ATOM     18  O5  UNK     1      48.500  15.038  -3.500  1.00  0.00    -0.361 OA
ATOM     19  H10 UNK     1      49.365  14.917  -3.071  1.00  0.00     0.217 HD
ENDBRANCH  15  18
ENDBRANCH   5  12
BRANCH   8  20
ATOM     20  O2  UNK     1      46.689   7.609 -10.955  1.00  0.00    -0.360 OA
ATOM     21  H8  UNK     1      45.742   7.625 -10.744  1.00  0.00     0.217 HD
ENDBRANCH   8  20
BRANCH  10  22
ATOM     22  O4  UNK     1      49.575   5.264  -8.000  1.00  0.00    -0.361 OA
ATOM     23  H9  UNK     1      48.941   4.528  -7.944  1.00  0.00     0.217 HD
ENDBRANCH  10  22
TORSDOF 4
ENDMDL
MODEL 9
REMARK VINA RESULT:      -5.4      9.830     11.455
REMARK  4 active torsions:
REMARK  status: ('A' for Active; 'I' for Inactive)
REMARK    1  A    between atoms: O2_2  and  C7_12 
REMARK    2  A    between atoms: O4_4  and  C9_14 
REMARK    3  A    between atoms: O5_5  and  C15_20 
REMARK    4  A    between atoms: C3_8  and  C4_9 
ROOT
ATOM      1  O1  UNK     1      47.204  12.036  -7.024  1.00  0.00    -0.309 OA
ATOM      2  O3  UNK     1      50.559  12.904  -9.167  1.00  0.00    -0.287 OA
ATOM      3  C1  UNK     1      49.323  13.213  -7.176  1.00  0.00     0.081 A 
ATOM      4  C2  UNK     1      48.155  12.874  -6.498  1.00  0.00     0.095 A 
ATOM      5  C3  UNK     1      47.414  11.512  -8.291  1.00  0.00     0.090 A 
ATOM      6  C5  UNK     1      49.555  12.651  -8.516  1.00  0.00     0.190 A 
ATOM      7  C6  UNK     1      48.501  11.758  -9.040  1.00  0.00     0.094 A 
ATOM      8  C7  UNK     1      50.258  14.070  -6.591  1.00  0.00     0.085 A 
ATOM      9  C8  UNK     1      47.912  13.391  -5.225  1.00  0.00     0.075 A 
ATOM     10  C9  UNK     1      48.842  14.248  -4.636  1.00  0.00     0.071 A 
ATOM     11  C10 UNK     1      50.013  14.588  -5.318  1.00  0.00     0.074 A 
ENDROOT
BRANCH   5  12
ATOM     12  C4  UNK     1      46.334  10.621  -8.758  1.00  0.00    -0.002 A 
ATOM     13  C12 UNK     1      46.643   9.392  -9.345  1.00  0.00     0.017 A 
ATOM     14  C14 UNK     1      45.622   8.551  -9.787  1.00  0.00     0.037 A 
ATOM     15  C15 UNK     1      44.288   8.935  -9.642  1.00  0.00     0.065 A 
ATOM     16  C13 UNK     1      43.977  10.162  -9.057  1.00  0.00     0.037 A 
ATOM     17  C11 UNK     1      44.998  11.004  -8.614  1.00  0.00     0.017 A 
BRANCH  15  18
ATOM     18  O5  UNK     1      43.293   8.114 -10.074  1.00  0.00    -0.361 OA
ATOM     19  H10 UNK     1      42.623   8.037  -9.373  1.00  0.00     0.217 HD
ENDBRANCH  15  18
ENDBRANCH   5  12
BRANCH   8  20
ATOM     20  O2  UNK     1      51.414  14.432  -7.212  1.00  0.00    -0.360 OA
ATOM     21  H8  UNK     1      51.650  15.345  -6.986  1.00  0.00     0.217 HD
ENDBRANCH   8  20
BRANCH  10  22
ATOM     22  O4  UNK     1      48.609  14.755  -3.394  1.00  0.00    -0.361 OA
ATOM     23  H9  UNK     1      49.401  14.623  -2.845  1.00  0.00     0.217 HD
ENDBRANCH  10  22
TORSDOF 4
ENDMDL
MODEL 10
REMARK VINA RESULT:      -5.3     10.161     11.453
REMARK  4 active torsions:
REMARK  status: ('A' for Active; 'I' for Inactive)
REMARK    1  A    between atoms: O2_2  and  C7_12 
REMARK    2  A    between atoms: O4_4  and  C9_14 
REMARK    3  A    between atoms: O5_5  and  C15_20 
REMARK    4  A    between atoms: C3_8  and  C4_9 
ROOT
ATOM      1  O1  UNK     1      46.291  11.340  -7.552  1.00  0.00    -0.309 OA
ATOM      2  O3  UNK     1      48.465  12.215 -10.885  1.00  0.00    -0.287 OA
ATOM      3  C1  UNK     1      46.402  11.512  -9.973  1.00  0.00     0.081 A 
ATOM      4  C2  UNK     1      45.716  11.230  -8.793  1.00  0.00     0.095 A 
ATOM      5  C3  UNK     1      47.616  11.742  -7.472  1.00  0.00     0.090 A 
ATOM      6  C5  UNK     1      47.805  11.948  -9.891  1.00  0.00     0.190 A 
ATOM      7  C6  UNK     1      48.379  12.048  -8.534  1.00  0.00     0.094 A 
ATOM      8  C7  UNK     1      45.766  11.384 -11.209  1.00  0.00     0.085 A 
ATOM      9  C8  UNK     1      44.385  10.816  -8.843  1.00  0.00     0.075 A 
ATOM     10  C9  UNK     1      43.744  10.686 -10.075  1.00  0.00     0.071 A 
ATOM     11  C10 UNK     1      44.434  10.969 -11.257  1.00  0.00     0.074 A 
ENDROOT
BRANCH   5  12
ATOM     12  C4  UNK     1      48.132  11.832  -6.092  1.00  0.00    -0.002 A 
ATOM     13  C12 UNK     1      48.640  10.697  -5.457  1.00  0.00     0.017 A 
ATOM     14  C14 UNK     1      49.127  10.782  -4.153  1.00  0.00     0.037 A 
ATOM     15  C15 UNK     1      49.108  12.004  -3.479  1.00  0.00     0.065 A 
ATOM     16  C13 UNK     1      48.601  13.140  -4.110  1.00  0.00     0.037 A 
ATOM     17  C11 UNK     1      48.114  13.055  -5.415  1.00  0.00     0.017 A 
BRANCH  15  18
ATOM     18  O5  UNK     1      49.583  12.087  -2.207  1.00  0.00    -0.361 OA
ATOM     19  H10 UNK     1      49.606  11.194  -1.821  1.00  0.00     0.217 HD
ENDBRANCH  15  18
ENDBRANCH   5  12
BRANCH   8  20
ATOM     20  O2  UNK     1      46.392  11.648 -12.389  1.00  0.00    -0.360 OA
ATOM     21  H8  UNK     1      45.774  11.551 -13.130  1.00  0.00     0.217 HD
ENDBRANCH   8  20
BRANCH  10  22
ATOM     22  O4  UNK     1      42.445  10.283 -10.127  1.00  0.00    -0.361 OA
ATOM     23  H9  UNK     1      42.391   9.353  -9.845  1.00  0.00     0.217 HD
ENDBRANCH  10  22
TORSDOF 4
ENDMDL
MODEL 11
REMARK VINA RESULT:      -5.3     10.192     12.345
REMARK  4 active torsions:
REMARK  status: ('A' for Active; 'I' for Inactive)
REMARK    1  A    between atoms: O2_2  and  C7_12 
REMARK    2  A    between atoms: O4_4  and  C9_14 
REMARK    3  A    between atoms: O5_5  and  C15_20 
REMARK    4  A    between atoms: C3_8  and  C4_9 
ROOT
ATOM      1  O1  UNK     1      47.841  11.462  -6.057  1.00  0.00    -0.309 OA
ATOM      2  O3  UNK     1      50.832   8.920  -7.147  1.00  0.00    -0.287 OA
ATOM      3  C1  UNK     1      49.880  10.282  -5.467  1.00  0.00     0.081 A 
ATOM      4  C2  UNK     1      48.828  11.142  -5.160  1.00  0.00     0.095 A 
ATOM      5  C3  UNK     1      47.899  10.909  -7.328  1.00  0.00     0.090 A 
ATOM      6  C5  UNK     1      49.940   9.685  -6.811  1.00  0.00     0.190 A 
ATOM      7  C6  UNK     1      48.855  10.062  -7.741  1.00  0.00     0.094 A 
ATOM      8  C7  UNK     1      50.857   9.991  -4.513  1.00  0.00     0.085 A 
ATOM      9  C8  UNK     1      48.747  11.720  -3.893  1.00  0.00     0.075 A 
ATOM     10  C9  UNK     1      49.721  11.433  -2.936  1.00  0.00     0.071 A 
ATOM     11  C10 UNK     1      50.775  10.570  -3.246  1.00  0.00     0.074 A 
ENDROOT
BRANCH   5  12
ATOM     12  C4  UNK     1      46.786  11.314  -8.209  1.00  0.00    -0.002 A 
ATOM     13  C12 UNK     1      45.480  11.354  -7.718  1.00  0.00     0.017 A 
ATOM     14  C14 UNK     1      44.429  11.736  -8.552  1.00  0.00     0.037 A 
ATOM     15  C15 UNK     1      44.681  12.080  -9.880  1.00  0.00     0.065 A 
ATOM     16  C13 UNK     1      45.984  12.041 -10.374  1.00  0.00     0.037 A 
ATOM     17  C11 UNK     1      47.036  11.659  -9.541  1.00  0.00     0.017 A 
BRANCH  15  18
ATOM     18  O5  UNK     1      43.655  12.452 -10.693  1.00  0.00    -0.361 OA
ATOM     19  H10 UNK     1      42.869  12.628 -10.147  1.00  0.00     0.217 HD
ENDBRANCH  15  18
ENDBRANCH   5  12
BRANCH   8  20
ATOM     20  O2  UNK     1      51.904   9.156  -4.764  1.00  0.00    -0.360 OA
ATOM     21  H8  UNK     1      52.731   9.542  -4.437  1.00  0.00     0.217 HD
ENDBRANCH   8  20
BRANCH  10  22
ATOM     22  O4  UNK     1      49.645  11.995  -1.698  1.00  0.00    -0.361 OA
ATOM     23  H9  UNK     1      49.953  11.349  -1.039  1.00  0.00     0.217 HD
ENDBRANCH  10  22
TORSDOF 4
ENDMDL
MODEL 12
REMARK VINA RESULT:      -5.3      9.991     11.620
REMARK  4 active torsions:
REMARK  status: ('A' for Active; 'I' for Inactive)
REMARK    1  A    between atoms: O2_2  and  C7_12 
REMARK    2  A    between atoms: O4_4  and  C9_14 
REMARK    3  A    between atoms: O5_5  and  C15_20 
REMARK    4  A    between atoms: C3_8  and  C4_9 
ROOT
ATOM      1  O1  UNK     1      46.603  11.579  -7.523  1.00  0.00    -0.309 OA
ATOM      2  O3  UNK     1      48.416   9.066 -10.169  1.00  0.00    -0.287 OA
ATOM      3  C1  UNK     1      46.635  10.555  -9.725  1.00  0.00     0.081 A 
ATOM      4  C2  UNK     1      46.068  11.399  -8.774  1.00  0.00     0.095 A 
ATOM      5  C3  UNK     1      47.756  10.882  -7.192  1.00  0.00     0.090 A 
ATOM      6  C5  UNK     1      47.864   9.821  -9.382  1.00  0.00     0.190 A 
ATOM      7  C6  UNK     1      48.399  10.047  -8.024  1.00  0.00     0.094 A 
ATOM      8  C7  UNK     1      46.047  10.411 -10.984  1.00  0.00     0.085 A 
ATOM      9  C8  UNK     1      44.904  12.108  -9.075  1.00  0.00     0.075 A 
ATOM     10  C9  UNK     1      44.312  11.967 -10.330  1.00  0.00     0.071 A 
ATOM     11  C10 UNK     1      44.882  11.120 -11.283  1.00  0.00     0.074 A 
ENDROOT
BRANCH   5  12
ATOM     12  C4  UNK     1      48.249  11.153  -5.828  1.00  0.00    -0.002 A 
ATOM     13  C12 UNK     1      49.133  10.265  -5.211  1.00  0.00     0.017 A 
ATOM     14  C14 UNK     1      49.598  10.521  -3.922  1.00  0.00     0.037 A 
ATOM     15  C15 UNK     1      49.180  11.666  -3.243  1.00  0.00     0.065 A 
ATOM     16  C13 UNK     1      48.297  12.555  -3.855  1.00  0.00     0.037 A 
ATOM     17  C11 UNK     1      47.831  12.299  -5.145  1.00  0.00     0.017 A 
BRANCH  15  18
ATOM     18  O5  UNK     1      49.634  11.915  -1.985  1.00  0.00    -0.361 OA
ATOM     19  H10 UNK     1      50.412  11.356  -1.814  1.00  0.00     0.217 HD
ENDBRANCH  15  18
ENDBRANCH   5  12
BRANCH   8  20
ATOM     20  O2  UNK     1      46.563   9.599 -11.948  1.00  0.00    -0.360 OA
ATOM     21  H8  UNK     1      46.988  10.126 -12.643  1.00  0.00     0.217 HD
ENDBRANCH   8  20
BRANCH  10  22
ATOM     22  O4  UNK     1      43.177  12.658 -10.628  1.00  0.00    -0.361 OA
ATOM     23  H9  UNK     1      42.972  12.536 -11.571  1.00  0.00     0.217 HD
ENDBRANCH  10  22
TORSDOF 4
ENDMDL
MODEL 13
REMARK VINA RESULT:      -5.2     11.566     13.911
REMARK  4 active torsions:
REMARK  status: ('A' for Active; 'I' for Inactive)
REMARK    1  A    between atoms: O2_2  and  C7_12 
REMARK    2  A    between atoms: O4_4  and  C9_14 
REMARK    3  A    between atoms: O5_5  and  C15_20 
REMARK    4  A    between atoms: C3_8  and  C4_9 
ROOT
ATOM      1  O1  UNK     1      40.593  14.498 -13.790  1.00  0.00    -0.309 OA
ATOM      2  O3  UNK     1      40.404  10.972 -11.756  1.00  0.00    -0.287 OA
ATOM      3  C1  UNK     1      39.505  12.353 -13.450  1.00  0.00     0.081 A 
ATOM      4  C2  UNK     1      39.627  13.576 -14.105  1.00  0.00     0.095 A 
ATOM      5  C3  UNK     1      41.481  14.199 -12.767  1.00  0.00     0.090 A 
ATOM      6  C5  UNK     1      40.451  12.028 -12.371  1.00  0.00     0.190 A 
ATOM      7  C6  UNK     1      41.471  13.053 -12.068  1.00  0.00     0.094 A 
ATOM      8  C7  UNK     1      38.502  11.452 -13.814  1.00  0.00     0.085 A 
ATOM      9  C8  UNK     1      38.744  13.908 -15.133  1.00  0.00     0.075 A 
ATOM     10  C9  UNK     1      37.739  13.012 -15.501  1.00  0.00     0.071 A 
ATOM     11  C10 UNK     1      37.618  11.786 -14.842  1.00  0.00     0.074 A 
ENDROOT
BRANCH   5  12
ATOM     12  C4  UNK     1      42.481  15.255 -12.514  1.00  0.00    -0.002 A 
ATOM     13  C12 UNK     1      43.017  15.984 -13.578  1.00  0.00     0.017 A 
ATOM     14  C14 UNK     1      43.963  16.981 -13.339  1.00  0.00     0.037 A 
ATOM     15  C15 UNK     1      44.376  17.252 -12.034  1.00  0.00     0.065 A 
ATOM     16  C13 UNK     1      43.843  16.526 -10.970  1.00  0.00     0.037 A 
ATOM     17  C11 UNK     1      42.897  15.529 -11.208  1.00  0.00     0.017 A 
BRANCH  15  18
ATOM     18  O5  UNK     1      45.299  18.224 -11.802  1.00  0.00    -0.361 OA
ATOM     19  H10 UNK     1      45.825  18.358 -12.609  1.00  0.00     0.217 HD
ENDBRANCH  15  18
ENDBRANCH   5  12
BRANCH   8  20
ATOM     20  O2  UNK     1      38.341  10.245 -13.205  1.00  0.00    -0.360 OA
ATOM     21  H8  UNK     1      38.639   9.529 -13.787  1.00  0.00     0.217 HD
ENDBRANCH   8  20
BRANCH  10  22
ATOM     22  O4  UNK     1      36.876  13.332 -16.503  1.00  0.00    -0.361 OA
ATOM     23  H9  UNK     1      36.413  12.526 -16.791  1.00  0.00     0.217 HD
ENDBRANCH  10  22
TORSDOF 4
ENDMDL
MODEL 14
REMARK VINA RESULT:      -5.2     11.208     13.552
REMARK  4 active torsions:
REMARK  status: ('A' for Active; 'I' for Inactive)
REMARK    1  A    between atoms: O2_2  and  C7_12 
REMARK    2  A    between atoms: O4_4  and  C9_14 
REMARK    3  A    between atoms: O5_5  and  C15_20 
REMARK    4  A    between atoms: C3_8  and  C4_9 
ROOT
ATOM      1  O1  UNK     1      52.147  11.200  -2.544  1.00  0.00    -0.309 OA
ATOM      2  O3  UNK     1      50.838  11.624   1.291  1.00  0.00    -0.287 OA
ATOM      3  C1  UNK     1      52.674  11.486  -0.190  1.00  0.00     0.081 A 
ATOM      4  C2  UNK     1      53.053  11.338  -1.523  1.00  0.00     0.095 A 
ATOM      5  C3  UNK     1      50.796  11.199  -2.232  1.00  0.00     0.090 A 
ATOM      6  C5  UNK     1      51.241  11.496   0.144  1.00  0.00     0.190 A 
ATOM      7  C6  UNK     1      50.306  11.341  -0.990  1.00  0.00     0.094 A 
ATOM      8  C7  UNK     1      53.640  11.624   0.809  1.00  0.00     0.085 A 
ATOM      9  C8  UNK     1      54.405  11.328  -1.866  1.00  0.00     0.075 A 
ATOM     10  C9  UNK     1      55.374  11.465  -0.872  1.00  0.00     0.071 A 
ATOM     11  C10 UNK     1      54.992  11.613   0.463  1.00  0.00     0.074 A 
ENDROOT
BRANCH   5  12
ATOM     12  C4  UNK     1      49.910  11.050  -3.404  1.00  0.00    -0.002 A 
ATOM     13  C12 UNK     1      50.129  10.021  -4.323  1.00  0.00     0.017 A 
ATOM     14  C14 UNK     1      49.293   9.881  -5.430  1.00  0.00     0.037 A 
ATOM     15  C15 UNK     1      48.234  10.769  -5.623  1.00  0.00     0.065 A 
ATOM     16  C13 UNK     1      48.014  11.799  -4.708  1.00  0.00     0.037 A 
ATOM     17  C11 UNK     1      48.850  11.939  -3.600  1.00  0.00     0.017 A 
BRANCH  15  18
ATOM     18  O5  UNK     1      47.420  10.633  -6.703  1.00  0.00    -0.361 OA
ATOM     19  H10 UNK     1      46.512  10.468  -6.394  1.00  0.00     0.217 HD
ENDBRANCH  15  18
ENDBRANCH   5  12
BRANCH   8  20
ATOM     20  O2  UNK     1      53.321  11.772   2.124  1.00  0.00    -0.360 OA
ATOM     21  H8  UNK     1      53.633  12.629   2.455  1.00  0.00     0.217 HD
ENDBRANCH   8  20
BRANCH  10  22
ATOM     22  O4  UNK     1      56.695  11.456  -1.204  1.00  0.00    -0.361 OA
ATOM     23  H9  UNK     1      56.794  11.070  -2.092  1.00  0.00     0.217 HD
ENDBRANCH  10  22
TORSDOF 4
ENDMDL
MODEL 15
REMARK VINA RESULT:      -5.2     10.615     12.899
REMARK  4 active torsions:
REMARK  status: ('A' for Active; 'I' for Inactive)
REMARK    1  A    between atoms: O2_2  and  C7_12 
REMARK    2  A    between atoms: O4_4  and  C9_14 
REMARK    3  A    between atoms: O5_5  and  C15_20 
REMARK    4  A    between atoms: C3_8  and  C4_9 
ROOT
ATOM      1  O1  UNK     1      51.085  10.113  -3.768  1.00  0.00    -0.309 OA
ATOM      2  O3  UNK     1      47.497  11.767  -4.762  1.00  0.00    -0.287 OA
ATOM      3  C1  UNK     1      49.284  10.349  -5.380  1.00  0.00     0.081 A 
ATOM      4  C2  UNK     1      50.507   9.818  -4.977  1.00  0.00     0.095 A 
ATOM      5  C3  UNK     1      50.425  10.985  -2.916  1.00  0.00     0.090 A 
ATOM      6  C5  UNK     1      48.575  11.267  -4.474  1.00  0.00     0.190 A 
ATOM      7  C6  UNK     1      49.240  11.555  -3.187  1.00  0.00     0.094 A 
ATOM      8  C7  UNK     1      48.741  10.012  -6.622  1.00  0.00     0.085 A 
ATOM      9  C8  UNK     1      51.198   8.944  -5.816  1.00  0.00     0.075 A 
ATOM     10  C9  UNK     1      50.661   8.604  -7.058  1.00  0.00     0.071 A 
ATOM     11  C10 UNK     1      49.435   9.138  -7.461  1.00  0.00     0.074 A 
ENDROOT
BRANCH   5  12
ATOM     12  C4  UNK     1      51.132  11.228  -1.643  1.00  0.00    -0.002 A 
ATOM     13  C12 UNK     1      50.409  11.512  -0.482  1.00  0.00     0.017 A 
ATOM     14  C14 UNK     1      51.077  11.743   0.720  1.00  0.00     0.037 A 
ATOM     15  C15 UNK     1      52.470  11.690   0.766  1.00  0.00     0.065 A 
ATOM     16  C13 UNK     1      53.195  11.408  -0.391  1.00  0.00     0.037 A 
ATOM     17  C11 UNK     1      52.528  11.177  -1.594  1.00  0.00     0.017 A 
BRANCH  15  18
ATOM     18  O5  UNK     1      53.122  11.916   1.939  1.00  0.00    -0.361 OA
ATOM     19  H10 UNK     1      53.592  11.106   2.199  1.00  0.00     0.217 HD
ENDBRANCH  15  18
ENDBRANCH   5  12
BRANCH   8  20
ATOM     20  O2  UNK     1      47.550  10.504  -7.061  1.00  0.00    -0.360 OA
ATOM     21  H8  UNK     1      47.222   9.982  -7.810  1.00  0.00     0.217 HD
ENDBRANCH   8  20
BRANCH  10  22
ATOM     22  O4  UNK     1      51.333   7.752  -7.880  1.00  0.00    -0.361 OA
ATOM     23  H9  UNK     1      52.149   7.463  -7.436  1.00  0.00     0.217 HD
ENDBRANCH  10  22
TORSDOF 4
ENDMDL
