MODEL 1
REMARK VINA RESULT:      -7.9      0.000      0.000
REMARK  4 active torsions:
REMARK  status: ('A' for Active; 'I' for Inactive)
REMARK    1  A    between atoms: O2_2  and  C7_12 
REMARK    2  A    between atoms: O4_4  and  C9_14 
REMARK    3  A    between atoms: O5_5  and  C15_20 
REMARK    4  A    between atoms: C3_8  and  C4_9 
ROOT
ATOM      1  O1  UNK     1      39.748  15.507  -0.057  1.00  0.00    -0.309 OA
ATOM      2  O3  UNK     1      41.218  16.428  -3.743  1.00  0.00    -0.287 OA
ATOM      3  C1  UNK     1      40.042  17.147  -1.824  1.00  0.00     0.081 A 
ATOM      4  C2  UNK     1      39.567  16.766  -0.571  1.00  0.00     0.095 A 
ATOM      5  C3  UNK     1      40.426  14.571  -0.824  1.00  0.00     0.090 A 
ATOM      6  C5  UNK     1      40.772  16.161  -2.636  1.00  0.00     0.190 A 
ATOM      7  C6  UNK     1      40.938  14.819  -2.040  1.00  0.00     0.094 A 
ATOM      8  C7  UNK     1      39.830  18.444  -2.296  1.00  0.00     0.085 A 
ATOM      9  C8  UNK     1      38.874  17.682   0.221  1.00  0.00     0.075 A 
ATOM     10  C9  UNK     1      38.659  18.979  -0.247  1.00  0.00     0.071 A 
ATOM     11  C10 UNK     1      39.136  19.359  -1.503  1.00  0.00     0.074 A 
ENDROOT
BRANCH   5  12
ATOM     12  C4  UNK     1      40.569  13.254  -0.174  1.00  0.00    -0.002 A 
ATOM     13  C12 UNK     1      40.248  13.097   1.176  1.00  0.00     0.017 A 
ATOM     14  C14 UNK     1      40.384  11.852   1.789  1.00  0.00     0.037 A 
ATOM     15  C15 UNK     1      40.842  10.758   1.054  1.00  0.00     0.065 A 
ATOM     16  C13 UNK     1      41.165  10.911  -0.294  1.00  0.00     0.037 A 
ATOM     17  C11 UNK     1      41.028  12.156  -0.908  1.00  0.00     0.017 A 
BRANCH  15  18
ATOM     18  O5  UNK     1      40.975   9.544   1.653  1.00  0.00    -0.361 OA
ATOM     19  H10 UNK     1      41.791   9.123   1.332  1.00  0.00     0.217 HD
ENDBRANCH  15  18
ENDBRANCH   5  12
BRANCH   8  20
ATOM     20  O2  UNK     1      40.274  18.865  -3.513  1.00  0.00    -0.360 OA
ATOM     21  H8  UNK     1      41.182  18.559  -3.667  1.00  0.00     0.217 HD
ENDBRANCH   8  20
BRANCH  10  22
ATOM     22  O4  UNK     1      37.984  19.876   0.523  1.00  0.00    -0.361 OA
ATOM     23  H9  UNK     1      38.275  20.775   0.290  1.00  0.00     0.217 HD
ENDBRANCH  10  22
TORSDOF 4
ENDMDL
MODEL 2
REMARK VINA RESULT:      -7.9      0.006      1.080
REMARK  4 active torsions:
REMARK  status: ('A' for Active; 'I' for Inactive)
REMARK    1  A    between atoms: O2_2  and  C7_12 
REMARK    2  A    between atoms: O4_4  and  C9_14 
REMARK    3  A    between atoms: O5_5  and  C15_20 
REMARK    4  A    between atoms: C3_8  and  C4_9 
ROOT
ATOM      1  O1  UNK     1      39.750  15.507  -0.058  1.00  0.00    -0.309 OA
ATOM      2  O3  UNK     1      41.212  16.432  -3.747  1.00  0.00    -0.287 OA
ATOM      3  C1  UNK     1      40.039  17.149  -1.825  1.00  0.00     0.081 A 
ATOM      4  C2  UNK     1      39.567  16.767  -0.571  1.00  0.00     0.095 A 
ATOM      5  C3  UNK     1      40.428  14.573  -0.827  1.00  0.00     0.090 A 
ATOM      6  C5  UNK     1      40.768  16.164  -2.640  1.00  0.00     0.190 A 
ATOM      7  C6  UNK     1      40.936  14.823  -2.045  1.00  0.00     0.094 A 
ATOM      8  C7  UNK     1      39.825  18.446  -2.296  1.00  0.00     0.085 A 
ATOM      9  C8  UNK     1      38.876  17.682   0.222  1.00  0.00     0.075 A 
ATOM     10  C9  UNK     1      38.658  18.979  -0.244  1.00  0.00     0.071 A 
ATOM     11  C10 UNK     1      39.131  19.360  -1.501  1.00  0.00     0.074 A 
ENDROOT
BRANCH   5  12
ATOM     12  C4  UNK     1      40.574  13.255  -0.179  1.00  0.00    -0.002 A 
ATOM     13  C12 UNK     1      41.030  12.158  -0.913  1.00  0.00     0.017 A 
ATOM     14  C14 UNK     1      41.167  10.913  -0.300  1.00  0.00     0.037 A 
ATOM     15  C15 UNK     1      40.847  10.760   1.049  1.00  0.00     0.065 A 
ATOM     16  C13 UNK     1      40.390  11.853   1.785  1.00  0.00     0.037 A 
ATOM     17  C11 UNK     1      40.253  13.099   1.173  1.00  0.00     0.017 A 
BRANCH  15  18
ATOM     18  O5  UNK     1      40.979   9.545   1.646  1.00  0.00    -0.361 OA
ATOM     19  H10 UNK     1      41.868   9.196   1.457  1.00  0.00     0.217 HD
ENDBRANCH  15  18
ENDBRANCH   5  12
BRANCH   8  20
ATOM     20  O2  UNK     1      40.266  18.868  -3.513  1.00  0.00    -0.360 OA
ATOM     21  H8  UNK     1      39.560  19.333  -3.988  1.00  0.00     0.217 HD
ENDBRANCH   8  20
BRANCH  10  22
ATOM     22  O4  UNK     1      37.983  19.875   0.528  1.00  0.00    -0.361 OA
ATOM     23  H9  UNK     1      38.049  20.756   0.120  1.00  0.00     0.217 HD
ENDBRANCH  10  22
TORSDOF 4
ENDMDL
MODEL 3
REMARK VINA RESULT:      -7.6      2.386      7.134
REMARK  4 active torsions:
REMARK  status: ('A' for Active; 'I' for Inactive)
REMARK    1  A    between atoms: O2_2  and  C7_12 
REMARK    2  A    between atoms: O4_4  and  C9_14 
REMARK    3  A    between atoms: O5_5  and  C15_20 
REMARK    4  A    between atoms: C3_8  and  C4_9 
ROOT
ATOM      1  O1  UNK     1      40.343  16.993  -1.140  1.00  0.00    -0.309 OA
ATOM      2  O3  UNK     1      36.873  14.911  -0.668  1.00  0.00    -0.287 OA
ATOM      3  C1  UNK     1      39.188  14.856  -1.137  1.00  0.00     0.081 A 
ATOM      4  C2  UNK     1      40.338  15.629  -1.283  1.00  0.00     0.095 A 
ATOM      5  C3  UNK     1      39.146  17.630  -0.845  1.00  0.00     0.090 A 
ATOM      6  C5  UNK     1      37.919  15.527  -0.813  1.00  0.00     0.190 A 
ATOM      7  C6  UNK     1      37.975  16.996  -0.672  1.00  0.00     0.094 A 
ATOM      8  C7  UNK     1      39.243  13.470  -1.293  1.00  0.00     0.085 A 
ATOM      9  C8  UNK     1      41.555  15.018  -1.588  1.00  0.00     0.075 A 
ATOM     10  C9  UNK     1      41.615  13.633  -1.745  1.00  0.00     0.071 A 
ATOM     11  C10 UNK     1      40.461  12.860  -1.599  1.00  0.00     0.074 A 
ENDROOT
BRANCH   5  12
ATOM     12  C4  UNK     1      39.265  19.095  -0.707  1.00  0.00    -0.002 A 
ATOM     13  C12 UNK     1      40.012  19.829  -1.631  1.00  0.00     0.017 A 
ATOM     14  C14 UNK     1      40.124  21.213  -1.499  1.00  0.00     0.037 A 
ATOM     15  C15 UNK     1      39.490  21.868  -0.444  1.00  0.00     0.065 A 
ATOM     16  C13 UNK     1      38.744  21.138   0.481  1.00  0.00     0.037 A 
ATOM     17  C11 UNK     1      38.631  19.754   0.350  1.00  0.00     0.017 A 
BRANCH  15  18
ATOM     18  O5  UNK     1      39.601  23.218  -0.316  1.00  0.00    -0.361 OA
ATOM     19  H10 UNK     1      39.617  23.617  -1.203  1.00  0.00     0.217 HD
ENDBRANCH  15  18
ENDBRANCH   5  12
BRANCH   8  20
ATOM     20  O2  UNK     1      38.148  12.671  -1.160  1.00  0.00    -0.360 OA
ATOM     21  H8  UNK     1      37.758  12.775  -0.278  1.00  0.00     0.217 HD
ENDBRANCH   8  20
BRANCH  10  22
ATOM     22  O4  UNK     1      42.801  13.033  -2.042  1.00  0.00    -0.361 OA
ATOM     23  H9  UNK     1      42.878  12.212  -1.525  1.00  0.00     0.217 HD
ENDBRANCH  10  22
TORSDOF 4
ENDMDL
MODEL 4
REMARK VINA RESULT:      -7.2      1.495      6.712
REMARK  4 active torsions:
REMARK  status: ('A' for Active; 'I' for Inactive)
REMARK    1  A    between atoms: O2_2  and  C7_12 
REMARK    2  A    between atoms: O4_4  and  C9_14 
REMARK    3  A    between atoms: O5_5  and  C15_20 
REMARK    4  A    between atoms: C3_8  and  C4_9 
ROOT
ATOM      1  O1  UNK     1      39.827  14.316   0.210  1.00  0.00    -0.309 OA
ATOM      2  O3  UNK     1      42.320  12.480  -2.438  1.00  0.00    -0.287 OA
ATOM      3  C1  UNK     1      41.003  12.308  -0.484  1.00  0.00     0.081 A 
ATOM      4  C2  UNK     1      40.156  12.995   0.382  1.00  0.00     0.095 A 
ATOM      5  C3  UNK     1      40.369  14.996  -0.870  1.00  0.00     0.090 A 
ATOM      6  C5  UNK     1      41.572  13.023  -1.637  1.00  0.00     0.190 A 
ATOM      7  C6  UNK     1      41.190  14.443  -1.777  1.00  0.00     0.094 A 
ATOM      8  C7  UNK     1      41.303  10.962  -0.260  1.00  0.00     0.085 A 
ATOM      9  C8  UNK     1      39.602  12.340   1.482  1.00  0.00     0.075 A 
ATOM     10  C9  UNK     1      39.898  10.996   1.711  1.00  0.00     0.071 A 
ATOM     11  C10 UNK     1      40.747  10.308   0.841  1.00  0.00     0.074 A 
ENDROOT
BRANCH   5  12
ATOM     12  C4  UNK     1      39.946  16.407  -0.964  1.00  0.00    -0.002 A 
ATOM     13  C12 UNK     1      40.218  17.147  -2.117  1.00  0.00     0.017 A 
ATOM     14  C14 UNK     1      39.819  18.480  -2.204  1.00  0.00     0.037 A 
ATOM     15  C15 UNK     1      39.145  19.079  -1.140  1.00  0.00     0.065 A 
ATOM     16  C13 UNK     1      38.873  18.344   0.014  1.00  0.00     0.037 A 
ATOM     17  C11 UNK     1      39.272  17.010   0.102  1.00  0.00     0.017 A 
BRANCH  15  18
ATOM     18  O5  UNK     1      38.757  20.380  -1.225  1.00  0.00    -0.361 OA
ATOM     19  H10 UNK     1      39.549  20.943  -1.262  1.00  0.00     0.217 HD
ENDBRANCH  15  18
ENDBRANCH   5  12
BRANCH   8  20
ATOM     20  O2  UNK     1      42.124  10.246  -1.077  1.00  0.00    -0.360 OA
ATOM     21  H8  UNK     1      42.190  10.669  -1.947  1.00  0.00     0.217 HD
ENDBRANCH   8  20
BRANCH  10  22
ATOM     22  O4  UNK     1      39.358  10.354   2.783  1.00  0.00    -0.361 OA
ATOM     23  H9  UNK     1      38.391  10.459   2.760  1.00  0.00     0.217 HD
ENDBRANCH  10  22
TORSDOF 4
ENDMDL
MODEL 5
REMARK VINA RESULT:      -7.2      1.494      6.634
REMARK  4 active torsions:
REMARK  status: ('A' for Active; 'I' for Inactive)
REMARK    1  A    between atoms: O2_2  and  C7_12 
REMARK    2  A    between atoms: O4_4  and  C9_14 
REMARK    3  A    between atoms: O5_5  and  C15_20 
REMARK    4  A    between atoms: C3_8  and  C4_9 
ROOT
ATOM      1  O1  UNK     1      39.828  14.316   0.211  1.00  0.00    -0.309 OA
ATOM      2  O3  UNK     1      42.322  12.482  -2.438  1.00  0.00    -0.287 OA
ATOM      3  C1  UNK     1      41.004  12.308  -0.484  1.00  0.00     0.081 A 
ATOM      4  C2  UNK     1      40.157  12.995   0.382  1.00  0.00     0.095 A 
ATOM      5  C3  UNK     1      40.371  14.997  -0.869  1.00  0.00     0.090 A 
ATOM      6  C5  UNK     1      41.574  13.023  -1.636  1.00  0.00     0.190 A 
ATOM      7  C6  UNK     1      41.192  14.444  -1.776  1.00  0.00     0.094 A 
ATOM      8  C7  UNK     1      41.304  10.962  -0.261  1.00  0.00     0.085 A 
ATOM      9  C8  UNK     1      39.601  12.339   1.481  1.00  0.00     0.075 A 
ATOM     10  C9  UNK     1      39.897  10.995   1.709  1.00  0.00     0.071 A 
ATOM     11  C10 UNK     1      40.748  10.308   0.839  1.00  0.00     0.074 A 
ENDROOT
BRANCH   5  12
ATOM     12  C4  UNK     1      39.948  16.408  -0.962  1.00  0.00    -0.002 A 
ATOM     13  C12 UNK     1      39.272  17.010   0.102  1.00  0.00     0.017 A 
ATOM     14  C14 UNK     1      38.872  18.343   0.013  1.00  0.00     0.037 A 
ATOM     15  C15 UNK     1      39.146  19.079  -1.140  1.00  0.00     0.065 A 
ATOM     16  C13 UNK     1      39.820  18.480  -2.205  1.00  0.00     0.037 A 
ATOM     17  C11 UNK     1      40.221  17.147  -2.116  1.00  0.00     0.017 A 
BRANCH  15  18
ATOM     18  O5  UNK     1      38.754  20.379  -1.226  1.00  0.00    -0.361 OA
ATOM     19  H10 UNK     1      39.206  20.794  -1.982  1.00  0.00     0.217 HD
ENDBRANCH  15  18
ENDBRANCH   5  12
BRANCH   8  20
ATOM     20  O2  UNK     1      42.125  10.246  -1.078  1.00  0.00    -0.360 OA
ATOM     21  H8  UNK     1      42.707   9.673  -0.556  1.00  0.00     0.217 HD
ENDBRANCH   8  20
BRANCH  10  22
ATOM     22  O4  UNK     1      39.357  10.351   2.780  1.00  0.00    -0.361 OA
ATOM     23  H9  UNK     1      38.878  10.997   3.328  1.00  0.00     0.217 HD
ENDBRANCH  10  22
TORSDOF 4
ENDMDL
MODEL 6
REMARK VINA RESULT:      -6.9      1.272      2.795
REMARK  4 active torsions:
REMARK  status: ('A' for Active; 'I' for Inactive)
REMARK    1  A    between atoms: O2_2  and  C7_12 
REMARK    2  A    between atoms: O4_4  and  C9_14 
REMARK    3  A    between atoms: O5_5  and  C15_20 
REMARK    4  A    between atoms: C3_8  and  C4_9 
ROOT
ATOM      1  O1  UNK     1      40.606  15.202  -1.941  1.00  0.00    -0.309 OA
ATOM      2  O3  UNK     1      38.912  18.110   0.355  1.00  0.00    -0.287 OA
ATOM      3  C1  UNK     1      39.879  17.508  -1.716  1.00  0.00     0.081 A 
ATOM      4  C2  UNK     1      40.449  16.468  -2.446  1.00  0.00     0.095 A 
ATOM      5  C3  UNK     1      40.186  14.952  -0.644  1.00  0.00     0.090 A 
ATOM      6  C5  UNK     1      39.423  17.245  -0.342  1.00  0.00     0.190 A 
ATOM      7  C6  UNK     1      39.616  15.868   0.156  1.00  0.00     0.094 A 
ATOM      8  C7  UNK     1      39.743  18.778  -2.281  1.00  0.00     0.085 A 
ATOM      9  C8  UNK     1      40.887  16.691  -3.752  1.00  0.00     0.075 A 
ATOM     10  C9  UNK     1      40.754  17.957  -4.321  1.00  0.00     0.071 A 
ATOM     11  C10 UNK     1      40.184  18.999  -3.587  1.00  0.00     0.074 A 
ENDROOT
BRANCH   5  12
ATOM     12  C4  UNK     1      40.396  13.559  -0.203  1.00  0.00    -0.002 A 
ATOM     13  C12 UNK     1      40.079  13.180   1.103  1.00  0.00     0.017 A 
ATOM     14  C14 UNK     1      40.278  11.863   1.518  1.00  0.00     0.037 A 
ATOM     15  C15 UNK     1      40.795  10.921   0.629  1.00  0.00     0.065 A 
ATOM     16  C13 UNK     1      41.114  11.296  -0.676  1.00  0.00     0.037 A 
ATOM     17  C11 UNK     1      40.914  12.612  -1.092  1.00  0.00     0.017 A 
BRANCH  15  18
ATOM     18  O5  UNK     1      40.990   9.637   1.035  1.00  0.00    -0.361 OA
ATOM     19  H10 UNK     1      40.736   9.037   0.313  1.00  0.00     0.217 HD
ENDBRANCH  15  18
ENDBRANCH   5  12
BRANCH   8  20
ATOM     20  O2  UNK     1      39.194  19.827  -1.609  1.00  0.00    -0.360 OA
ATOM     21  H8  UNK     1      39.581  20.664  -1.911  1.00  0.00     0.217 HD
ENDBRANCH   8  20
BRANCH  10  22
ATOM     22  O4  UNK     1      41.181  18.178  -5.595  1.00  0.00    -0.361 OA
ATOM     23  H9  UNK     1      41.175  19.136  -5.769  1.00  0.00     0.217 HD
ENDBRANCH  10  22
TORSDOF 4
ENDMDL
MODEL 7
REMARK VINA RESULT:      -6.1     16.015     17.860
REMARK  4 active torsions:
REMARK  status: ('A' for Active; 'I' for Inactive)
REMARK    1  A    between atoms: O2_2  and  C7_12 
REMARK    2  A    between atoms: O4_4  and  C9_14 
REMARK    3  A    between atoms: O5_5  and  C15_20 
REMARK    4  A    between atoms: C3_8  and  C4_9 
ROOT
ATOM      1  O1  UNK     1      44.218   1.671   7.488  1.00  0.00    -0.309 OA
ATOM      2  O3  UNK     1      45.750   0.664  11.126  1.00  0.00    -0.287 OA
ATOM      3  C1  UNK     1      46.151   1.484   8.947  1.00  0.00     0.081 A 
ATOM      4  C2  UNK     1      45.562   1.810   7.727  1.00  0.00     0.095 A 
ATOM      5  C3  UNK     1      43.414   1.176   8.504  1.00  0.00     0.090 A 
ATOM      6  C5  UNK     1      45.300   0.967  10.030  1.00  0.00     0.190 A 
ATOM      7  C6  UNK     1      43.862   0.833   9.722  1.00  0.00     0.094 A 
ATOM      8  C7  UNK     1      47.525   1.647   9.134  1.00  0.00     0.085 A 
ATOM      9  C8  UNK     1      46.346   2.304   6.684  1.00  0.00     0.075 A 
ATOM     10  C9  UNK     1      47.719   2.469   6.866  1.00  0.00     0.071 A 
ATOM     11  C10 UNK     1      48.308   2.141   8.089  1.00  0.00     0.074 A 
ENDROOT
BRANCH   5  12
ATOM     12  C4  UNK     1      41.987   1.072   8.142  1.00  0.00    -0.002 A 
ATOM     13  C12 UNK     1      41.328   2.160   7.565  1.00  0.00     0.017 A 
ATOM     14  C14 UNK     1      39.979   2.061   7.225  1.00  0.00     0.037 A 
ATOM     15  C15 UNK     1      39.284   0.874   7.460  1.00  0.00     0.065 A 
ATOM     16  C13 UNK     1      39.939  -0.214   8.037  1.00  0.00     0.037 A 
ATOM     17  C11 UNK     1      41.288  -0.116   8.377  1.00  0.00     0.017 A 
BRANCH  15  18
ATOM     18  O5  UNK     1      37.968   0.779   7.128  1.00  0.00    -0.361 OA
ATOM     19  H10 UNK     1      37.771  -0.142   6.885  1.00  0.00     0.217 HD
ENDBRANCH  15  18
ENDBRANCH   5  12
BRANCH   8  20
ATOM     20  O2  UNK     1      48.148   1.343  10.307  1.00  0.00    -0.360 OA
ATOM     21  H8  UNK     1      48.464   2.150  10.742  1.00  0.00     0.217 HD
ENDBRANCH   8  20
BRANCH  10  22
ATOM     22  O4  UNK     1      48.487   2.951   5.850  1.00  0.00    -0.361 OA
ATOM     23  H9  UNK     1      47.905   3.257   5.133  1.00  0.00     0.217 HD
ENDBRANCH  10  22
TORSDOF 4
ENDMDL
MODEL 8
REMARK VINA RESULT:      -6.1     16.018     17.864
REMARK  4 active torsions:
REMARK  status: ('A' for Active; 'I' for Inactive)
REMARK    1  A    between atoms: O2_2  and  C7_12 
REMARK    2  A    between atoms: O4_4  and  C9_14 
REMARK    3  A    between atoms: O5_5  and  C15_20 
REMARK    4  A    between atoms: C3_8  and  C4_9 
ROOT
ATOM      1  O1  UNK     1      44.221   1.669   7.489  1.00  0.00    -0.309 OA
ATOM      2  O3  UNK     1      45.757   0.664  11.126  1.00  0.00    -0.287 OA
ATOM      3  C1  UNK     1      46.155   1.484   8.946  1.00  0.00     0.081 A 
ATOM      4  C2  UNK     1      45.565   1.810   7.727  1.00  0.00     0.095 A 
ATOM      5  C3  UNK     1      43.418   1.174   8.506  1.00  0.00     0.090 A 
ATOM      6  C5  UNK     1      45.306   0.967  10.031  1.00  0.00     0.190 A 
ATOM      7  C6  UNK     1      43.867   0.832   9.724  1.00  0.00     0.094 A 
ATOM      8  C7  UNK     1      47.530   1.648   9.132  1.00  0.00     0.085 A 
ATOM      9  C8  UNK     1      46.347   2.303   6.683  1.00  0.00     0.075 A 
ATOM     10  C9  UNK     1      47.720   2.469   6.863  1.00  0.00     0.071 A 
ATOM     11  C10 UNK     1      48.311   2.141   8.086  1.00  0.00     0.074 A 
ENDROOT
BRANCH   5  12
ATOM     12  C4  UNK     1      41.991   1.069   8.146  1.00  0.00    -0.002 A 
ATOM     13  C12 UNK     1      41.292  -0.117   8.382  1.00  0.00     0.017 A 
ATOM     14  C14 UNK     1      39.944  -0.216   8.041  1.00  0.00     0.037 A 
ATOM     15  C15 UNK     1      39.288   0.871   7.463  1.00  0.00     0.065 A 
ATOM     16  C13 UNK     1      39.983   2.057   7.225  1.00  0.00     0.037 A 
ATOM     17  C11 UNK     1      41.332   2.157   7.566  1.00  0.00     0.017 A 
BRANCH  15  18
ATOM     18  O5  UNK     1      37.973   0.774   7.130  1.00  0.00    -0.361 OA
ATOM     19  H10 UNK     1      37.670   1.634   6.791  1.00  0.00     0.217 HD
ENDBRANCH  15  18
ENDBRANCH   5  12
BRANCH   8  20
ATOM     20  O2  UNK     1      48.154   1.345  10.304  1.00  0.00    -0.360 OA
ATOM     21  H8  UNK     1      47.540   1.435  11.049  1.00  0.00     0.217 HD
ENDBRANCH   8  20
BRANCH  10  22
ATOM     22  O4  UNK     1      48.487   2.951   5.846  1.00  0.00    -0.361 OA
ATOM     23  H9  UNK     1      48.542   2.278   5.146  1.00  0.00     0.217 HD
ENDBRANCH  10  22
TORSDOF 4
ENDMDL
MODEL 9
REMARK VINA RESULT:      -6.0     12.819     15.669
REMARK  4 active torsions:
REMARK  status: ('A' for Active; 'I' for Inactive)
REMARK    1  A    between atoms: O2_2  and  C7_12 
REMARK    2  A    between atoms: O4_4  and  C9_14 
REMARK    3  A    between atoms: O5_5  and  C15_20 
REMARK    4  A    between atoms: C3_8  and  C4_9 
ROOT
ATOM      1  O1  UNK     1      38.903  22.087  11.014  1.00  0.00    -0.309 OA
ATOM      2  O3  UNK     1      37.720  19.651  14.058  1.00  0.00    -0.287 OA
ATOM      3  C1  UNK     1      39.315  20.121  12.379  1.00  0.00     0.081 A 
ATOM      4  C2  UNK     1      39.662  20.995  11.351  1.00  0.00     0.095 A 
ATOM      5  C3  UNK     1      37.735  22.324  11.724  1.00  0.00     0.090 A 
ATOM      6  C5  UNK     1      38.082  20.375  13.142  1.00  0.00     0.190 A 
ATOM      7  C6  UNK     1      37.299  21.561  12.738  1.00  0.00     0.094 A 
ATOM      8  C7  UNK     1      40.127  19.025  12.680  1.00  0.00     0.085 A 
ATOM      9  C8  UNK     1      40.826  20.778  10.614  1.00  0.00     0.075 A 
ATOM     10  C9  UNK     1      41.641  19.684  10.910  1.00  0.00     0.071 A 
ATOM     11  C10 UNK     1      41.291  18.809  11.941  1.00  0.00     0.074 A 
ENDROOT
BRANCH   5  12
ATOM     12  C4  UNK     1      36.999  23.525  11.283  1.00  0.00    -0.002 A 
ATOM     13  C12 UNK     1      35.963  23.413  10.354  1.00  0.00     0.017 A 
ATOM     14  C14 UNK     1      35.269  24.549   9.938  1.00  0.00     0.037 A 
ATOM     15  C15 UNK     1      35.608  25.801  10.449  1.00  0.00     0.065 A 
ATOM     16  C13 UNK     1      36.644  25.917  11.376  1.00  0.00     0.037 A 
ATOM     17  C11 UNK     1      37.338  24.782  11.794  1.00  0.00     0.017 A 
BRANCH  15  18
ATOM     18  O5  UNK     1      34.931  26.909  10.042  1.00  0.00    -0.361 OA
ATOM     19  H10 UNK     1      34.639  27.405  10.826  1.00  0.00     0.217 HD
ENDBRANCH  15  18
ENDBRANCH   5  12
BRANCH   8  20
ATOM     20  O2  UNK     1      39.832  18.143  13.675  1.00  0.00    -0.360 OA
ATOM     21  H8  UNK     1      39.460  17.327  13.306  1.00  0.00     0.217 HD
ENDBRANCH   8  20
BRANCH  10  22
ATOM     22  O4  UNK     1      42.778  19.470  10.193  1.00  0.00    -0.361 OA
ATOM     23  H9  UNK     1      43.547  19.693  10.746  1.00  0.00     0.217 HD
ENDBRANCH  10  22
TORSDOF 4
ENDMDL
MODEL 10
REMARK VINA RESULT:      -6.0     12.632     15.191
REMARK  4 active torsions:
REMARK  status: ('A' for Active; 'I' for Inactive)
REMARK    1  A    between atoms: O2_2  and  C7_12 
REMARK    2  A    between atoms: O4_4  and  C9_14 
REMARK    3  A    between atoms: O5_5  and  C15_20 
REMARK    4  A    between atoms: C3_8  and  C4_9 
ROOT
ATOM      1  O1  UNK     1      36.648  23.290  10.674  1.00  0.00    -0.309 OA
ATOM      2  O3  UNK     1      34.462  22.864  14.086  1.00  0.00    -0.287 OA
ATOM      3  C1  UNK     1      34.765  23.999  12.036  1.00  0.00     0.081 A 
ATOM      4  C2  UNK     1      35.555  24.091  10.892  1.00  0.00     0.095 A 
ATOM      5  C3  UNK     1      36.984  22.355  11.642  1.00  0.00     0.090 A 
ATOM      6  C5  UNK     1      35.112  23.001  13.060  1.00  0.00     0.190 A 
ATOM      7  C6  UNK     1      36.298  22.166  12.780  1.00  0.00     0.094 A 
ATOM      8  C7  UNK     1      33.663  24.840  12.204  1.00  0.00     0.085 A 
ATOM      9  C8  UNK     1      35.247  25.027   9.905  1.00  0.00     0.075 A 
ATOM     10  C9  UNK     1      34.147  25.870  10.067  1.00  0.00     0.071 A 
ATOM     11  C10 UNK     1      33.356  25.777  11.215  1.00  0.00     0.074 A 
ENDROOT
BRANCH   5  12
ATOM     12  C4  UNK     1      38.171  21.544  11.305  1.00  0.00    -0.002 A 
ATOM     13  C12 UNK     1      38.690  21.565  10.009  1.00  0.00     0.017 A 
ATOM     14  C14 UNK     1      39.811  20.798   9.691  1.00  0.00     0.037 A 
ATOM     15  C15 UNK     1      40.417  20.008  10.669  1.00  0.00     0.065 A 
ATOM     16  C13 UNK     1      39.900  19.985  11.964  1.00  0.00     0.037 A 
ATOM     17  C11 UNK     1      38.779  20.752  12.283  1.00  0.00     0.017 A 
BRANCH  15  18
ATOM     18  O5  UNK     1      41.510  19.260  10.358  1.00  0.00    -0.361 OA
ATOM     19  H10 UNK     1      41.583  19.196   9.390  1.00  0.00     0.217 HD
ENDBRANCH  15  18
ENDBRANCH   5  12
BRANCH   8  20
ATOM     20  O2  UNK     1      32.860  24.789  13.302  1.00  0.00    -0.360 OA
ATOM     21  H8  UNK     1      33.102  25.486  13.932  1.00  0.00     0.217 HD
ENDBRANCH   8  20
BRANCH  10  22
ATOM     22  O4  UNK     1      33.843  26.785   9.106  1.00  0.00    -0.361 OA
ATOM     23  H9  UNK     1      34.628  27.333   8.932  1.00  0.00     0.217 HD
ENDBRANCH  10  22
TORSDOF 4
ENDMDL
MODEL 11
REMARK VINA RESULT:      -5.9     15.741     18.220
REMARK  4 active torsions:
REMARK  status: ('A' for Active; 'I' for Inactive)
REMARK    1  A    between atoms: O2_2  and  C7_12 
REMARK    2  A    between atoms: O4_4  and  C9_14 
REMARK    3  A    between atoms: O5_5  and  C15_20 
REMARK    4  A    between atoms: C3_8  and  C4_9 
ROOT
ATOM      1  O1  UNK     1      43.086   1.385   8.100  1.00  0.00    -0.309 OA
ATOM      2  O3  UNK     1      41.546  -1.728  10.230  1.00  0.00    -0.287 OA
ATOM      3  C1  UNK     1      41.148   0.079   8.760  1.00  0.00     0.081 A 
ATOM      4  C2  UNK     1      41.739   1.125   8.056  1.00  0.00     0.095 A 
ATOM      5  C3  UNK     1      43.890   0.574   8.887  1.00  0.00     0.090 A 
ATOM      6  C5  UNK     1      41.998  -0.790   9.588  1.00  0.00     0.190 A 
ATOM      7  C6  UNK     1      43.440  -0.467   9.605  1.00  0.00     0.094 A 
ATOM      8  C7  UNK     1      39.771  -0.140   8.677  1.00  0.00     0.085 A 
ATOM      9  C8  UNK     1      40.956   1.963   7.261  1.00  0.00     0.075 A 
ATOM     10  C9  UNK     1      39.580   1.749   7.175  1.00  0.00     0.071 A 
ATOM     11  C10 UNK     1      38.988   0.700   7.882  1.00  0.00     0.074 A 
ENDROOT
BRANCH   5  12
ATOM     12  C4  UNK     1      45.320   0.938   8.858  1.00  0.00    -0.002 A 
ATOM     13  C12 UNK     1      45.816   1.754   7.839  1.00  0.00     0.017 A 
ATOM     14  C14 UNK     1      47.168   2.097   7.812  1.00  0.00     0.037 A 
ATOM     15  C15 UNK     1      48.028   1.625   8.804  1.00  0.00     0.065 A 
ATOM     16  C13 UNK     1      47.536   0.809   9.822  1.00  0.00     0.037 A 
ATOM     17  C11 UNK     1      46.184   0.466   9.850  1.00  0.00     0.017 A 
BRANCH  15  18
ATOM     18  O5  UNK     1      49.347   1.959   8.776  1.00  0.00    -0.361 OA
ATOM     19  H10 UNK     1      49.486   2.737   9.343  1.00  0.00     0.217 HD
ENDBRANCH  15  18
ENDBRANCH   5  12
BRANCH   8  20
ATOM     20  O2  UNK     1      39.145  -1.148   9.344  1.00  0.00    -0.360 OA
ATOM     21  H8  UNK     1      39.768  -1.867   9.535  1.00  0.00     0.217 HD
ENDBRANCH   8  20
BRANCH  10  22
ATOM     22  O4  UNK     1      38.812   2.564   6.400  1.00  0.00    -0.361 OA
ATOM     23  H9  UNK     1      38.139   2.027   5.948  1.00  0.00     0.217 HD
ENDBRANCH  10  22
TORSDOF 4
ENDMDL
MODEL 12
REMARK VINA RESULT:      -5.9     16.133     18.320
REMARK  4 active torsions:
REMARK  status: ('A' for Active; 'I' for Inactive)
REMARK    1  A    between atoms: O2_2  and  C7_12 
REMARK    2  A    between atoms: O4_4  and  C9_14 
REMARK    3  A    between atoms: O5_5  and  C15_20 
REMARK    4  A    between atoms: C3_8  and  C4_9 
ROOT
ATOM      1  O1  UNK     1      41.883  -0.430   8.424  1.00  0.00    -0.309 OA
ATOM      2  O3  UNK     1      39.175   2.313   7.104  1.00  0.00    -0.287 OA
ATOM      3  C1  UNK     1      39.578   0.124   7.899  1.00  0.00     0.081 A 
ATOM      4  C2  UNK     1      40.555  -0.764   8.342  1.00  0.00     0.095 A 
ATOM      5  C3  UNK     1      42.268   0.846   8.040  1.00  0.00     0.090 A 
ATOM      6  C5  UNK     1      39.980   1.482   7.500  1.00  0.00     0.190 A 
ATOM      7  C6  UNK     1      41.421   1.792   7.604  1.00  0.00     0.094 A 
ATOM      8  C7  UNK     1      38.239  -0.270   7.836  1.00  0.00     0.085 A 
ATOM      9  C8  UNK     1      40.199  -2.057   8.728  1.00  0.00     0.075 A 
ATOM     10  C9  UNK     1      38.864  -2.456   8.667  1.00  0.00     0.071 A 
ATOM     11  C10 UNK     1      37.886  -1.565   8.222  1.00  0.00     0.074 A 
ENDROOT
BRANCH   5  12
ATOM     12  C4  UNK     1      43.716   1.101   8.174  1.00  0.00    -0.002 A 
ATOM     13  C12 UNK     1      44.378   1.895   7.235  1.00  0.00     0.017 A 
ATOM     14  C14 UNK     1      45.746   2.134   7.361  1.00  0.00     0.037 A 
ATOM     15  C15 UNK     1      46.457   1.581   8.426  1.00  0.00     0.065 A 
ATOM     16  C13 UNK     1      45.799   0.787   9.365  1.00  0.00     0.037 A 
ATOM     17  C11 UNK     1      44.430   0.547   9.240  1.00  0.00     0.017 A 
BRANCH  15  18
ATOM     18  O5  UNK     1      47.792   1.815   8.548  1.00  0.00    -0.361 OA
ATOM     19  H10 UNK     1      47.923   2.616   9.084  1.00  0.00     0.217 HD
ENDBRANCH  15  18
ENDBRANCH   5  12
BRANCH   8  20
ATOM     20  O2  UNK     1      37.247   0.560   7.411  1.00  0.00    -0.360 OA
ATOM     21  H8  UNK     1      37.466   0.934   6.544  1.00  0.00     0.217 HD
ENDBRANCH   8  20
BRANCH  10  22
ATOM     22  O4  UNK     1      38.513  -3.717   9.043  1.00  0.00    -0.361 OA
ATOM     23  H9  UNK     1      39.320  -4.250   9.149  1.00  0.00     0.217 HD
ENDBRANCH  10  22
TORSDOF 4
ENDMDL
MODEL 13
REMARK VINA RESULT:      -5.9     16.417     18.644
REMARK  4 active torsions:
REMARK  status: ('A' for Active; 'I' for Inactive)
REMARK    1  A    between atoms: O2_2  and  C7_12 
REMARK    2  A    between atoms: O4_4  and  C9_14 
REMARK    3  A    between atoms: O5_5  and  C15_20 
REMARK    4  A    between atoms: C3_8  and  C4_9 
ROOT
ATOM      1  O1  UNK     1      43.619  -0.115   9.058  1.00  0.00    -0.309 OA
ATOM      2  O3  UNK     1      40.565   1.981   7.362  1.00  0.00    -0.287 OA
ATOM      3  C1  UNK     1      41.236   0.115   8.647  1.00  0.00     0.081 A 
ATOM      4  C2  UNK     1      42.326  -0.552   9.201  1.00  0.00     0.095 A 
ATOM      5  C3  UNK     1      43.848   1.037   8.321  1.00  0.00     0.090 A 
ATOM      6  C5  UNK     1      41.474   1.344   7.874  1.00  0.00     0.190 A 
ATOM      7  C6  UNK     1      42.883   1.771   7.746  1.00  0.00     0.094 A 
ATOM      8  C7  UNK     1      39.941  -0.375   8.826  1.00  0.00     0.085 A 
ATOM      9  C8  UNK     1      42.128  -1.718   9.941  1.00  0.00     0.075 A 
ATOM     10  C9  UNK     1      40.836  -2.213  10.123  1.00  0.00     0.071 A 
ATOM     11  C10 UNK     1      39.744  -1.543   9.566  1.00  0.00     0.074 A 
ENDROOT
BRANCH   5  12
ATOM     12  C4  UNK     1      45.271   1.420   8.235  1.00  0.00    -0.002 A 
ATOM     13  C12 UNK     1      46.183   0.952   9.183  1.00  0.00     0.017 A 
ATOM     14  C14 UNK     1      47.528   1.314   9.101  1.00  0.00     0.037 A 
ATOM     15  C15 UNK     1      47.965   2.147   8.071  1.00  0.00     0.065 A 
ATOM     16  C13 UNK     1      47.057   2.618   7.123  1.00  0.00     0.037 A 
ATOM     17  C11 UNK     1      45.712   2.255   7.204  1.00  0.00     0.017 A 
BRANCH  15  18
ATOM     18  O5  UNK     1      49.276   2.501   7.992  1.00  0.00    -0.361 OA
ATOM     19  H10 UNK     1      49.608   2.283   7.104  1.00  0.00     0.217 HD
ENDBRANCH  15  18
ENDBRANCH   5  12
BRANCH   8  20
ATOM     20  O2  UNK     1      38.843   0.240   8.306  1.00  0.00    -0.360 OA
ATOM     21  H8  UNK     1      38.261  -0.407   7.880  1.00  0.00     0.217 HD
ENDBRANCH   8  20
BRANCH  10  22
ATOM     22  O4  UNK     1      40.638  -3.351  10.844  1.00  0.00    -0.361 OA
ATOM     23  H9  UNK     1      39.695  -3.585  10.811  1.00  0.00     0.217 HD
ENDBRANCH  10  22
TORSDOF 4
ENDMDL
MODEL 14
REMARK VINA RESULT:      -5.9     22.482     26.356
REMARK  4 active torsions:
REMARK  status: ('A' for Active; 'I' for Inactive)
REMARK    1  A    between atoms: O2_2  and  C7_12 
REMARK    2  A    between atoms: O4_4  and  C9_14 
REMARK    3  A    between atoms: O5_5  and  C15_20 
REMARK    4  A    between atoms: C3_8  and  C4_9 
ROOT
ATOM      1  O1  UNK     1      38.823  -9.920   4.943  1.00  0.00    -0.309 OA
ATOM      2  O3  UNK     1      36.270 -10.704   1.866  1.00  0.00    -0.287 OA
ATOM      3  C1  UNK     1      37.281  -9.087   3.261  1.00  0.00     0.081 A 
ATOM      4  C2  UNK     1      38.167  -8.889   4.318  1.00  0.00     0.095 A 
ATOM      5  C3  UNK     1      38.584 -11.214   4.507  1.00  0.00     0.090 A 
ATOM      6  C5  UNK     1      37.033 -10.458   2.789  1.00  0.00     0.190 A 
ATOM      7  C6  UNK     1      37.760 -11.532   3.496  1.00  0.00     0.094 A 
ATOM      8  C7  UNK     1      36.642  -7.999   2.661  1.00  0.00     0.085 A 
ATOM      9  C8  UNK     1      38.421  -7.599   4.782  1.00  0.00     0.075 A 
ATOM     10  C9  UNK     1      37.786  -6.509   4.187  1.00  0.00     0.071 A 
ATOM     11  C10 UNK     1      36.897  -6.709   3.128  1.00  0.00     0.074 A 
ENDROOT
BRANCH   5  12
ATOM     12  C4  UNK     1      39.344 -12.244   5.244  1.00  0.00    -0.002 A 
ATOM     13  C12 UNK     1      39.581 -12.096   6.612  1.00  0.00     0.017 A 
ATOM     14  C14 UNK     1      40.300 -13.069   7.307  1.00  0.00     0.037 A 
ATOM     15  C15 UNK     1      40.783 -14.193   6.637  1.00  0.00     0.065 A 
ATOM     16  C13 UNK     1      40.548 -14.343   5.270  1.00  0.00     0.037 A 
ATOM     17  C11 UNK     1      39.830 -13.370   4.574  1.00  0.00     0.017 A 
BRANCH  15  18
ATOM     18  O5  UNK     1      41.484 -15.141   7.315  1.00  0.00    -0.361 OA
ATOM     19  H10 UNK     1      40.930 -15.487   8.036  1.00  0.00     0.217 HD
ENDBRANCH  15  18
ENDBRANCH   5  12
BRANCH   8  20
ATOM     20  O2  UNK     1      35.768  -8.140   1.626  1.00  0.00    -0.360 OA
ATOM     21  H8  UNK     1      35.908  -8.988   1.176  1.00  0.00     0.217 HD
ENDBRANCH   8  20
BRANCH  10  22
ATOM     22  O4  UNK     1      38.032  -5.248   4.638  1.00  0.00    -0.361 OA
ATOM     23  H9  UNK     1      38.474  -5.303   5.503  1.00  0.00     0.217 HD
ENDBRANCH  10  22
TORSDOF 4
ENDMDL
MODEL 15
REMARK VINA RESULT:      -5.8     15.832     16.743
REMARK  4 active torsions:
REMARK  status: ('A' for Active; 'I' for Inactive)
REMARK    1  A    between atoms: O2_2  and  C7_12 
REMARK    2  A    between atoms: O4_4  and  C9_14 
REMARK    3  A    between atoms: O5_5  and  C15_20 
REMARK    4  A    between atoms: C3_8  and  C4_9 
ROOT
ATOM      1  O1  UNK     1      43.596   1.855   7.478  1.00  0.00    -0.309 OA
ATOM      2  O3  UNK     1      44.007   4.798  10.265  1.00  0.00    -0.287 OA
ATOM      3  C1  UNK     1      45.026   3.465   8.601  1.00  0.00     0.081 A 
ATOM      4  C2  UNK     1      44.816   2.455   7.666  1.00  0.00     0.095 A 
ATOM      5  C3  UNK     1      42.530   2.269   8.261  1.00  0.00     0.090 A 
ATOM      6  C5  UNK     1      43.895   3.915   9.427  1.00  0.00     0.190 A 
ATOM      7  C6  UNK     1      42.604   3.237   9.189  1.00  0.00     0.094 A 
ATOM      8  C7  UNK     1      46.290   4.041   8.749  1.00  0.00     0.085 A 
ATOM      9  C8  UNK     1      45.872   2.012   6.869  1.00  0.00     0.075 A 
ATOM     10  C9  UNK     1      47.137   2.583   7.012  1.00  0.00     0.071 A 
ATOM     11  C10 UNK     1      47.346   3.595   7.951  1.00  0.00     0.074 A 
ENDROOT
BRANCH   5  12
ATOM     12  C4  UNK     1      41.265   1.564   7.973  1.00  0.00    -0.002 A 
ATOM     13  C12 UNK     1      40.203   2.243   7.373  1.00  0.00     0.017 A 
ATOM     14  C14 UNK     1      39.008   1.576   7.102  1.00  0.00     0.037 A 
ATOM     15  C15 UNK     1      38.872   0.227   7.430  1.00  0.00     0.065 A 
ATOM     16  C13 UNK     1      39.931  -0.454   8.030  1.00  0.00     0.037 A 
ATOM     17  C11 UNK     1      41.126   0.212   8.301  1.00  0.00     0.017 A 
BRANCH  15  18
ATOM     18  O5  UNK     1      37.706  -0.422   7.166  1.00  0.00    -0.361 OA
ATOM     19  H10 UNK     1      37.849  -1.379   7.269  1.00  0.00     0.217 HD
ENDBRANCH  15  18
ENDBRANCH   5  12
BRANCH   8  20
ATOM     20  O2  UNK     1      46.547   5.030   9.648  1.00  0.00    -0.360 OA
ATOM     21  H8  UNK     1      46.960   5.790   9.209  1.00  0.00     0.217 HD
ENDBRANCH   8  20
BRANCH  10  22
ATOM     22  O4  UNK     1      48.169   2.153   6.236  1.00  0.00    -0.361 OA
ATOM     23  H9  UNK     1      47.927   1.302   5.831  1.00  0.00     0.217 HD
ENDBRANCH  10  22
TORSDOF 4
ENDMDL
MODEL 16
REMARK VINA RESULT:      -5.7     22.167     23.170
REMARK  4 active torsions:
REMARK  status: ('A' for Active; 'I' for Inactive)
REMARK    1  A    between atoms: O2_2  and  C7_12 
REMARK    2  A    between atoms: O4_4  and  C9_14 
REMARK    3  A    between atoms: O5_5  and  C15_20 
REMARK    4  A    between atoms: C3_8  and  C4_9 
ROOT
ATOM      1  O1  UNK     1      56.017  -1.061   2.498  1.00  0.00    -0.309 OA
ATOM      2  O3  UNK     1      52.656  -2.259   0.531  1.00  0.00    -0.287 OA
ATOM      3  C1  UNK     1      54.907  -1.553   0.394  1.00  0.00     0.081 A 
ATOM      4  C2  UNK     1      56.021  -1.152   1.129  1.00  0.00     0.095 A 
ATOM      5  C3  UNK     1      54.849  -1.376   3.177  1.00  0.00     0.090 A 
ATOM      6  C5  UNK     1      53.669  -1.897   1.112  1.00  0.00     0.190 A 
ATOM      7  C6  UNK     1      53.715  -1.781   2.584  1.00  0.00     0.094 A 
ATOM      8  C7  UNK     1      54.968  -1.628  -0.999  1.00  0.00     0.085 A 
ATOM      9  C8  UNK     1      57.207  -0.822   0.473  1.00  0.00     0.075 A 
ATOM     10  C9  UNK     1      57.274  -0.895  -0.918  1.00  0.00     0.071 A 
ATOM     11  C10 UNK     1      56.156  -1.297  -1.653  1.00  0.00     0.074 A 
ENDROOT
BRANCH   5  12
ATOM     12  C4  UNK     1      54.957  -1.250   4.644  1.00  0.00    -0.002 A 
ATOM     13  C12 UNK     1      55.671  -0.191   5.208  1.00  0.00     0.017 A 
ATOM     14  C14 UNK     1      55.773  -0.073   6.594  1.00  0.00     0.037 A 
ATOM     15  C15 UNK     1      55.161  -1.015   7.421  1.00  0.00     0.065 A 
ATOM     16  C13 UNK     1      54.447  -2.074   6.862  1.00  0.00     0.037 A 
ATOM     17  C11 UNK     1      54.344  -2.192   5.476  1.00  0.00     0.017 A 
BRANCH  15  18
ATOM     18  O5  UNK     1      55.261  -0.900   8.773  1.00  0.00    -0.361 OA
ATOM     19  H10 UNK     1      55.924  -1.535   9.094  1.00  0.00     0.217 HD
ENDBRANCH  15  18
ENDBRANCH   5  12
BRANCH   8  20
ATOM     20  O2  UNK     1      53.909  -2.015  -1.762  1.00  0.00    -0.360 OA
ATOM     21  H8  UNK     1      53.345  -1.254  -1.970  1.00  0.00     0.217 HD
ENDBRANCH   8  20
BRANCH  10  22
ATOM     22  O4  UNK     1      58.430  -0.574  -1.562  1.00  0.00    -0.361 OA
ATOM     23  H9  UNK     1      58.420  -0.974  -2.448  1.00  0.00     0.217 HD
ENDBRANCH  10  22
TORSDOF 4
ENDMDL
MODEL 17
REMARK VINA RESULT:      -5.7     16.409     18.939
REMARK  4 active torsions:
REMARK  status: ('A' for Active; 'I' for Inactive)
REMARK    1  A    between atoms: O2_2  and  C7_12 
REMARK    2  A    between atoms: O4_4  and  C9_14 
REMARK    3  A    between atoms: O5_5  and  C15_20 
REMARK    4  A    between atoms: C3_8  and  C4_9 
ROOT
ATOM      1  O1  UNK     1      41.685   0.460   8.176  1.00  0.00    -0.309 OA
ATOM      2  O3  UNK     1      41.698  -2.606  10.859  1.00  0.00    -0.287 OA
ATOM      3  C1  UNK     1      40.449  -1.246   9.385  1.00  0.00     0.081 A 
ATOM      4  C2  UNK     1      40.515  -0.191   8.477  1.00  0.00     0.095 A 
ATOM      5  C3  UNK     1      42.849   0.053   8.811  1.00  0.00     0.090 A 
ATOM      6  C5  UNK     1      41.683  -1.687  10.053  1.00  0.00     0.190 A 
ATOM      7  C6  UNK     1      42.915  -0.953   9.698  1.00  0.00     0.094 A 
ATOM      8  C7  UNK     1      39.230  -1.873   9.652  1.00  0.00     0.085 A 
ATOM      9  C8  UNK     1      39.360   0.244   7.828  1.00  0.00     0.075 A 
ATOM     10  C9  UNK     1      38.140  -0.378   8.091  1.00  0.00     0.071 A 
ATOM     11  C10 UNK     1      38.075  -1.435   9.003  1.00  0.00     0.074 A 
ENDROOT
BRANCH   5  12
ATOM     12  C4  UNK     1      44.048   0.816   8.410  1.00  0.00    -0.002 A 
ATOM     13  C12 UNK     1      45.192   0.797   9.211  1.00  0.00     0.017 A 
ATOM     14  C14 UNK     1      46.324   1.518   8.832  1.00  0.00     0.037 A 
ATOM     15  C15 UNK     1      46.317   2.261   7.651  1.00  0.00     0.065 A 
ATOM     16  C13 UNK     1      45.175   2.282   6.850  1.00  0.00     0.037 A 
ATOM     17  C11 UNK     1      44.043   1.561   7.228  1.00  0.00     0.017 A 
BRANCH  15  18
ATOM     18  O5  UNK     1      47.421   2.965   7.283  1.00  0.00    -0.361 OA
ATOM     19  H10 UNK     1      47.660   3.574   8.003  1.00  0.00     0.217 HD
ENDBRANCH  15  18
ENDBRANCH   5  12
BRANCH   8  20
ATOM     20  O2  UNK     1      39.112  -2.907  10.530  1.00  0.00    -0.360 OA
ATOM     21  H8  UNK     1      38.193  -3.214  10.572  1.00  0.00     0.217 HD
ENDBRANCH   8  20
BRANCH  10  22
ATOM     22  O4  UNK     1      37.010   0.045   7.460  1.00  0.00    -0.361 OA
ATOM     23  H9  UNK     1      36.708   0.872   7.873  1.00  0.00     0.217 HD
ENDBRANCH  10  22
TORSDOF 4
ENDMDL
MODEL 18
REMARK VINA RESULT:      -5.6     15.082     18.134
REMARK  4 active torsions:
REMARK  status: ('A' for Active; 'I' for Inactive)
REMARK    1  A    between atoms: O2_2  and  C7_12 
REMARK    2  A    between atoms: O4_4  and  C9_14 
REMARK    3  A    between atoms: O5_5  and  C15_20 
REMARK    4  A    between atoms: C3_8  and  C4_9 
ROOT
ATOM      1  O1  UNK     1      42.166   1.078   9.464  1.00  0.00    -0.309 OA
ATOM      2  O3  UNK     1      39.014   1.006   6.883  1.00  0.00    -0.287 OA
ATOM      3  C1  UNK     1      40.428  -0.197   8.345  1.00  0.00     0.081 A 
ATOM      4  C2  UNK     1      41.512  -0.102   9.216  1.00  0.00     0.095 A 
ATOM      5  C3  UNK     1      41.734   2.223   8.812  1.00  0.00     0.090 A 
ATOM      6  C5  UNK     1      39.960   1.017   7.658  1.00  0.00     0.190 A 
ATOM      7  C6  UNK     1      40.699   2.261   7.957  1.00  0.00     0.094 A 
ATOM      8  C7  UNK     1      39.799  -1.426   8.131  1.00  0.00     0.085 A 
ATOM      9  C8  UNK     1      41.974  -1.238   9.881  1.00  0.00     0.075 A 
ATOM     10  C9  UNK     1      41.349  -2.467   9.671  1.00  0.00     0.071 A 
ATOM     11  C10 UNK     1      40.264  -2.561   8.797  1.00  0.00     0.074 A 
ENDROOT
BRANCH   5  12
ATOM     12  C4  UNK     1      42.503   3.435   9.155  1.00  0.00    -0.002 A 
ATOM     13  C12 UNK     1      41.906   4.461   9.892  1.00  0.00     0.017 A 
ATOM     14  C14 UNK     1      42.633   5.606  10.215  1.00  0.00     0.037 A 
ATOM     15  C15 UNK     1      43.960   5.730   9.803  1.00  0.00     0.065 A 
ATOM     16  C13 UNK     1      44.559   4.709   9.067  1.00  0.00     0.037 A 
ATOM     17  C11 UNK     1      43.833   3.563   8.743  1.00  0.00     0.017 A 
BRANCH  15  18
ATOM     18  O5  UNK     1      44.668   6.848  10.118  1.00  0.00    -0.361 OA
ATOM     19  H10 UNK     1      45.582   6.592  10.333  1.00  0.00     0.217 HD
ENDBRANCH  15  18
ENDBRANCH   5  12
BRANCH   8  20
ATOM     20  O2  UNK     1      38.738  -1.571   7.291  1.00  0.00    -0.360 OA
ATOM     21  H8  UNK     1      37.962  -1.105   7.640  1.00  0.00     0.217 HD
ENDBRANCH   8  20
BRANCH  10  22
ATOM     22  O4  UNK     1      41.798  -3.578  10.318  1.00  0.00    -0.361 OA
ATOM     23  H9  UNK     1      42.042  -3.336  11.228  1.00  0.00     0.217 HD
ENDBRANCH  10  22
TORSDOF 4
ENDMDL
