MODEL 1
REMARK VINA RESULT:      -6.0      0.000      0.000
REMARK  4 active torsions:
REMARK  status: ('A' for Active; 'I' for Inactive)
REMARK    1  A    between atoms: O2_2  and  C7_12 
REMARK    2  A    between atoms: O4_4  and  C9_14 
REMARK    3  A    between atoms: O5_5  and  C15_20 
REMARK    4  A    between atoms: C3_8  and  C4_9 
ROOT
ATOM      1  O1  UNK     1      44.632   1.758   7.496  1.00  0.00    -0.309 OA
ATOM      2  O3  UNK     1      46.444   0.391  10.879  1.00  0.00    -0.287 OA
ATOM      3  C1  UNK     1      46.672   1.443   8.775  1.00  0.00     0.081 A 
ATOM      4  C2  UNK     1      45.989   1.889   7.646  1.00  0.00     0.095 A 
ATOM      5  C3  UNK     1      43.911   1.146   8.511  1.00  0.00     0.090 A 
ATOM      6  C5  UNK     1      45.910   0.803   9.859  1.00  0.00     0.190 A 
ATOM      7  C6  UNK     1      44.453   0.683   9.648  1.00  0.00     0.094 A 
ATOM      8  C7  UNK     1      48.056   1.604   8.875  1.00  0.00     0.085 A 
ATOM      9  C8  UNK     1      46.688   2.501   6.605  1.00  0.00     0.075 A 
ATOM     10  C9  UNK     1      48.070   2.664   6.699  1.00  0.00     0.071 A 
ATOM     11  C10 UNK     1      48.753   2.216   7.832  1.00  0.00     0.074 A 
ENDROOT
BRANCH   5  12
ATOM     12  C4  UNK     1      42.461   1.062   8.249  1.00  0.00    -0.002 A 
ATOM     13  C12 UNK     1      41.794   2.127   7.640  1.00  0.00     0.017 A 
ATOM     14  C14 UNK     1      40.424   2.047   7.395  1.00  0.00     0.037 A 
ATOM     15  C15 UNK     1      39.715   0.902   7.757  1.00  0.00     0.065 A 
ATOM     16  C13 UNK     1      40.377  -0.164   8.366  1.00  0.00     0.037 A 
ATOM     17  C11 UNK     1      41.748  -0.084   8.612  1.00  0.00     0.017 A 
BRANCH  15  18
ATOM     18  O5  UNK     1      38.378   0.825   7.518  1.00  0.00    -0.361 OA
ATOM     19  H10 UNK     1      38.221   0.940   6.564  1.00  0.00     0.217 HD
ENDBRANCH  15  18
ENDBRANCH   5  12
BRANCH   8  20
ATOM     20  O2  UNK     1      48.768   1.186   9.957  1.00  0.00    -0.360 OA
ATOM     21  H8  UNK     1      49.217   0.348   9.765  1.00  0.00     0.217 HD
ENDBRANCH   8  20
BRANCH  10  22
ATOM     22  O4  UNK     1      48.755   3.261   5.685  1.00  0.00    -0.361 OA
ATOM     23  H9  UNK     1      49.031   2.581   5.046  1.00  0.00     0.217 HD
ENDBRANCH  10  22
TORSDOF 4
ENDMDL
MODEL 2
REMARK VINA RESULT:      -6.0      1.721      6.933
REMARK  4 active torsions:
REMARK  status: ('A' for Active; 'I' for Inactive)
REMARK    1  A    between atoms: O2_2  and  C7_12 
REMARK    2  A    between atoms: O4_4  and  C9_14 
REMARK    3  A    between atoms: O5_5  and  C15_20 
REMARK    4  A    between atoms: C3_8  and  C4_9 
ROOT
ATOM      1  O1  UNK     1      42.681   1.173   7.947  1.00  0.00    -0.309 OA
ATOM      2  O3  UNK     1      41.343  -1.710  10.495  1.00  0.00    -0.287 OA
ATOM      3  C1  UNK     1      40.821  -0.110   8.837  1.00  0.00     0.081 A 
ATOM      4  C2  UNK     1      41.345   0.863   7.989  1.00  0.00     0.095 A 
ATOM      5  C3  UNK     1      43.544   0.493   8.793  1.00  0.00     0.090 A 
ATOM      6  C5  UNK     1      41.734  -0.842   9.728  1.00  0.00     0.190 A 
ATOM      7  C6  UNK     1      43.161  -0.470   9.647  1.00  0.00     0.094 A 
ATOM      8  C7  UNK     1      39.452  -0.386   8.836  1.00  0.00     0.085 A 
ATOM      9  C8  UNK     1      40.501   1.569   7.132  1.00  0.00     0.075 A 
ATOM     10  C9  UNK     1      39.132   1.299   7.128  1.00  0.00     0.071 A 
ATOM     11  C10 UNK     1      38.608   0.323   7.979  1.00  0.00     0.074 A 
ENDROOT
BRANCH   5  12
ATOM     12  C4  UNK     1      44.956   0.900   8.662  1.00  0.00    -0.002 A 
ATOM     13  C12 UNK     1      45.892   0.507   9.622  1.00  0.00     0.017 A 
ATOM     14  C14 UNK     1      47.226   0.893   9.498  1.00  0.00     0.037 A 
ATOM     15  C15 UNK     1      47.630   1.673   8.414  1.00  0.00     0.065 A 
ATOM     16  C13 UNK     1      46.698   2.068   7.455  1.00  0.00     0.037 A 
ATOM     17  C11 UNK     1      45.364   1.682   7.578  1.00  0.00     0.017 A 
BRANCH  15  18
ATOM     18  O5  UNK     1      48.932   2.050   8.295  1.00  0.00    -0.361 OA
ATOM     19  H10 UNK     1      49.398   1.400   7.742  1.00  0.00     0.217 HD
ENDBRANCH  15  18
ENDBRANCH   5  12
BRANCH   8  20
ATOM     20  O2  UNK     1      38.891  -1.327   9.645  1.00  0.00    -0.360 OA
ATOM     21  H8  UNK     1      38.215  -0.927  10.214  1.00  0.00     0.217 HD
ENDBRANCH   8  20
BRANCH  10  22
ATOM     22  O4  UNK     1      38.305   1.987   6.293  1.00  0.00    -0.361 OA
ATOM     23  H9  UNK     1      38.566   1.808   5.373  1.00  0.00     0.217 HD
ENDBRANCH  10  22
TORSDOF 4
ENDMDL
MODEL 3
REMARK VINA RESULT:      -6.0      1.716      6.872
REMARK  4 active torsions:
REMARK  status: ('A' for Active; 'I' for Inactive)
REMARK    1  A    between atoms: O2_2  and  C7_12 
REMARK    2  A    between atoms: O4_4  and  C9_14 
REMARK    3  A    between atoms: O5_5  and  C15_20 
REMARK    4  A    between atoms: C3_8  and  C4_9 
ROOT
ATOM      1  O1  UNK     1      42.675   1.167   7.962  1.00  0.00    -0.309 OA
ATOM      2  O3  UNK     1      41.301  -1.738  10.466  1.00  0.00    -0.287 OA
ATOM      3  C1  UNK     1      40.801  -0.116   8.822  1.00  0.00     0.081 A 
ATOM      4  C2  UNK     1      41.337   0.864   7.990  1.00  0.00     0.095 A 
ATOM      5  C3  UNK     1      43.528   0.471   8.806  1.00  0.00     0.090 A 
ATOM      6  C5  UNK     1      41.703  -0.864   9.712  1.00  0.00     0.190 A 
ATOM      7  C6  UNK     1      43.133  -0.499   9.646  1.00  0.00     0.094 A 
ATOM      8  C7  UNK     1      39.430  -0.382   8.809  1.00  0.00     0.085 A 
ATOM      9  C8  UNK     1      40.504   1.586   7.136  1.00  0.00     0.075 A 
ATOM     10  C9  UNK     1      39.133   1.324   7.118  1.00  0.00     0.071 A 
ATOM     11  C10 UNK     1      38.597   0.342   7.954  1.00  0.00     0.074 A 
ENDROOT
BRANCH   5  12
ATOM     12  C4  UNK     1      44.944   0.871   8.690  1.00  0.00    -0.002 A 
ATOM     13  C12 UNK     1      45.364   1.667   7.623  1.00  0.00     0.017 A 
ATOM     14  C14 UNK     1      46.702   2.044   7.514  1.00  0.00     0.037 A 
ATOM     15  C15 UNK     1      47.625   1.626   8.472  1.00  0.00     0.065 A 
ATOM     16  C13 UNK     1      47.210   0.830   9.539  1.00  0.00     0.037 A 
ATOM     17  C11 UNK     1      45.871   0.453   9.649  1.00  0.00     0.017 A 
BRANCH  15  18
ATOM     18  O5  UNK     1      48.931   1.993   8.365  1.00  0.00    -0.361 OA
ATOM     19  H10 UNK     1      49.492   1.228   8.579  1.00  0.00     0.217 HD
ENDBRANCH  15  18
ENDBRANCH   5  12
BRANCH   8  20
ATOM     20  O2  UNK     1      38.857  -1.330   9.602  1.00  0.00    -0.360 OA
ATOM     21  H8  UNK     1      38.681  -0.971  10.486  1.00  0.00     0.217 HD
ENDBRANCH   8  20
BRANCH  10  22
ATOM     22  O4  UNK     1      38.317   2.027   6.286  1.00  0.00    -0.361 OA
ATOM     23  H9  UNK     1      38.773   2.164   5.437  1.00  0.00     0.217 HD
ENDBRANCH  10  22
TORSDOF 4
ENDMDL
MODEL 4
REMARK VINA RESULT:      -5.9      1.916      7.217
REMARK  4 active torsions:
REMARK  status: ('A' for Active; 'I' for Inactive)
REMARK    1  A    between atoms: O2_2  and  C7_12 
REMARK    2  A    between atoms: O4_4  and  C9_14 
REMARK    3  A    between atoms: O5_5  and  C15_20 
REMARK    4  A    between atoms: C3_8  and  C4_9 
ROOT
ATOM      1  O1  UNK     1      43.500  -0.113   8.951  1.00  0.00    -0.309 OA
ATOM      2  O3  UNK     1      40.451   2.063   7.347  1.00  0.00    -0.287 OA
ATOM      3  C1  UNK     1      41.116   0.156   8.574  1.00  0.00     0.081 A 
ATOM      4  C2  UNK     1      42.204  -0.539   9.097  1.00  0.00     0.095 A 
ATOM      5  C3  UNK     1      43.735   1.057   8.243  1.00  0.00     0.090 A 
ATOM      6  C5  UNK     1      41.359   1.402   7.831  1.00  0.00     0.190 A 
ATOM      7  C6  UNK     1      42.771   1.817   7.698  1.00  0.00     0.094 A 
ATOM      8  C7  UNK     1      39.817  -0.324   8.754  1.00  0.00     0.085 A 
ATOM      9  C8  UNK     1      42.000  -1.722   9.807  1.00  0.00     0.075 A 
ATOM     10  C9  UNK     1      40.705  -2.207   9.991  1.00  0.00     0.071 A 
ATOM     11  C10 UNK     1      39.615  -1.509   9.464  1.00  0.00     0.074 A 
ENDROOT
BRANCH   5  12
ATOM     12  C4  UNK     1      45.161   1.426   8.151  1.00  0.00    -0.002 A 
ATOM     13  C12 UNK     1      46.058   1.013   9.138  1.00  0.00     0.017 A 
ATOM     14  C14 UNK     1      47.406   1.362   9.050  1.00  0.00     0.037 A 
ATOM     15  C15 UNK     1      47.860   2.126   7.976  1.00  0.00     0.065 A 
ATOM     16  C13 UNK     1      46.967   2.541   6.989  1.00  0.00     0.037 A 
ATOM     17  C11 UNK     1      45.619   2.192   7.075  1.00  0.00     0.017 A 
BRANCH  15  18
ATOM     18  O5  UNK     1      49.175   2.468   7.892  1.00  0.00    -0.361 OA
ATOM     19  H10 UNK     1      49.252   3.303   7.399  1.00  0.00     0.217 HD
ENDBRANCH  15  18
ENDBRANCH   5  12
BRANCH   8  20
ATOM     20  O2  UNK     1      38.721   0.317   8.263  1.00  0.00    -0.360 OA
ATOM     21  H8  UNK     1      37.909  -0.136   8.541  1.00  0.00     0.217 HD
ENDBRANCH   8  20
BRANCH  10  22
ATOM     22  O4  UNK     1      40.502  -3.361  10.683  1.00  0.00    -0.361 OA
ATOM     23  H9  UNK     1      39.580  -3.386  10.992  1.00  0.00     0.217 HD
ENDBRANCH  10  22
TORSDOF 4
ENDMDL
MODEL 5
REMARK VINA RESULT:      -5.9      1.876      7.624
REMARK  4 active torsions:
REMARK  status: ('A' for Active; 'I' for Inactive)
REMARK    1  A    between atoms: O2_2  and  C7_12 
REMARK    2  A    between atoms: O4_4  and  C9_14 
REMARK    3  A    between atoms: O5_5  and  C15_20 
REMARK    4  A    between atoms: C3_8  and  C4_9 
ROOT
ATOM      1  O1  UNK     1      41.929  -0.453   8.486  1.00  0.00    -0.309 OA
ATOM      2  O3  UNK     1      39.277   2.311   7.100  1.00  0.00    -0.287 OA
ATOM      3  C1  UNK     1      39.639   0.126   7.923  1.00  0.00     0.081 A 
ATOM      4  C2  UNK     1      40.598  -0.770   8.389  1.00  0.00     0.095 A 
ATOM      5  C3  UNK     1      42.336   0.813   8.093  1.00  0.00     0.090 A 
ATOM      6  C5  UNK     1      40.065   1.474   7.515  1.00  0.00     0.190 A 
ATOM      7  C6  UNK     1      41.508   1.766   7.635  1.00  0.00     0.094 A 
ATOM      8  C7  UNK     1      38.296  -0.251   7.847  1.00  0.00     0.085 A 
ATOM      9  C8  UNK     1      40.220  -2.053   8.784  1.00  0.00     0.075 A 
ATOM     10  C9  UNK     1      38.880  -2.435   8.710  1.00  0.00     0.071 A 
ATOM     11  C10 UNK     1      37.920  -1.536   8.242  1.00  0.00     0.074 A 
ENDROOT
BRANCH   5  12
ATOM     12  C4  UNK     1      43.786   1.050   8.243  1.00  0.00    -0.002 A 
ATOM     13  C12 UNK     1      44.481   1.785   7.280  1.00  0.00     0.017 A 
ATOM     14  C14 UNK     1      45.850   2.007   7.422  1.00  0.00     0.037 A 
ATOM     15  C15 UNK     1      46.530   1.497   8.528  1.00  0.00     0.065 A 
ATOM     16  C13 UNK     1      45.839   0.762   9.491  1.00  0.00     0.037 A 
ATOM     17  C11 UNK     1      44.469   0.539   9.350  1.00  0.00     0.017 A 
BRANCH  15  18
ATOM     18  O5  UNK     1      47.866   1.714   8.665  1.00  0.00    -0.361 OA
ATOM     19  H10 UNK     1      48.070   1.834   9.609  1.00  0.00     0.217 HD
ENDBRANCH  15  18
ENDBRANCH   5  12
BRANCH   8  20
ATOM     20  O2  UNK     1      37.321   0.588   7.399  1.00  0.00    -0.360 OA
ATOM     21  H8  UNK     1      37.057   0.350   6.497  1.00  0.00     0.217 HD
ENDBRANCH   8  20
BRANCH  10  22
ATOM     22  O4  UNK     1      38.507  -3.687   9.095  1.00  0.00    -0.361 OA
ATOM     23  H9  UNK     1      37.546  -3.781   8.976  1.00  0.00     0.217 HD
ENDBRANCH  10  22
TORSDOF 4
ENDMDL
MODEL 6
REMARK VINA RESULT:      -5.9      2.009      2.373
REMARK  4 active torsions:
REMARK  status: ('A' for Active; 'I' for Inactive)
REMARK    1  A    between atoms: O2_2  and  C7_12 
REMARK    2  A    between atoms: O4_4  and  C9_14 
REMARK    3  A    between atoms: O5_5  and  C15_20 
REMARK    4  A    between atoms: C3_8  and  C4_9 
ROOT
ATOM      1  O1  UNK     1      43.577   1.802   7.470  1.00  0.00    -0.309 OA
ATOM      2  O3  UNK     1      43.975   4.837  10.160  1.00  0.00    -0.287 OA
ATOM      3  C1  UNK     1      45.003   3.445   8.550  1.00  0.00     0.081 A 
ATOM      4  C2  UNK     1      44.798   2.404   7.648  1.00  0.00     0.095 A 
ATOM      5  C3  UNK     1      42.506   2.246   8.231  1.00  0.00     0.090 A 
ATOM      6  C5  UNK     1      43.867   3.926   9.352  1.00  0.00     0.190 A 
ATOM      7  C6  UNK     1      42.576   3.244   9.126  1.00  0.00     0.094 A 
ATOM      8  C7  UNK     1      46.268   4.022   8.688  1.00  0.00     0.085 A 
ATOM      9  C8  UNK     1      45.858   1.932   6.875  1.00  0.00     0.075 A 
ATOM     10  C9  UNK     1      47.124   2.504   7.009  1.00  0.00     0.071 A 
ATOM     11  C10 UNK     1      47.328   3.547   7.915  1.00  0.00     0.074 A 
ENDROOT
BRANCH   5  12
ATOM     12  C4  UNK     1      41.242   1.535   7.957  1.00  0.00    -0.002 A 
ATOM     13  C12 UNK     1      40.171   2.208   7.364  1.00  0.00     0.017 A 
ATOM     14  C14 UNK     1      38.977   1.535   7.107  1.00  0.00     0.037 A 
ATOM     15  C15 UNK     1      38.848   0.187   7.441  1.00  0.00     0.065 A 
ATOM     16  C13 UNK     1      39.915  -0.488   8.033  1.00  0.00     0.037 A 
ATOM     17  C11 UNK     1      41.110   0.184   8.291  1.00  0.00     0.017 A 
BRANCH  15  18
ATOM     18  O5  UNK     1      37.683  -0.468   7.190  1.00  0.00    -0.361 OA
ATOM     19  H10 UNK     1      36.942   0.151   7.309  1.00  0.00     0.217 HD
ENDBRANCH  15  18
ENDBRANCH   5  12
BRANCH   8  20
ATOM     20  O2  UNK     1      46.520   5.041   9.556  1.00  0.00    -0.360 OA
ATOM     21  H8  UNK     1      46.307   5.895   9.147  1.00  0.00     0.217 HD
ENDBRANCH   8  20
BRANCH  10  22
ATOM     22  O4  UNK     1      48.161   2.045   6.256  1.00  0.00    -0.361 OA
ATOM     23  H9  UNK     1      48.383   2.713   5.584  1.00  0.00     0.217 HD
ENDBRANCH  10  22
TORSDOF 4
ENDMDL
MODEL 7
REMARK VINA RESULT:      -5.7      3.664      6.625
REMARK  4 active torsions:
REMARK  status: ('A' for Active; 'I' for Inactive)
REMARK    1  A    between atoms: O2_2  and  C7_12 
REMARK    2  A    between atoms: O4_4  and  C9_14 
REMARK    3  A    between atoms: O5_5  and  C15_20 
REMARK    4  A    between atoms: C3_8  and  C4_9 
ROOT
ATOM      1  O1  UNK     1      40.988   2.115   8.687  1.00  0.00    -0.309 OA
ATOM      2  O3  UNK     1      43.470  -0.967   9.656  1.00  0.00    -0.287 OA
ATOM      3  C1  UNK     1      41.384  -0.279   8.785  1.00  0.00     0.081 A 
ATOM      4  C2  UNK     1      40.586   0.820   8.476  1.00  0.00     0.095 A 
ATOM      5  C3  UNK     1      42.240   2.336   9.241  1.00  0.00     0.090 A 
ATOM      6  C5  UNK     1      42.717  -0.050   9.363  1.00  0.00     0.190 A 
ATOM      7  C6  UNK     1      43.102   1.361   9.574  1.00  0.00     0.094 A 
ATOM      8  C7  UNK     1      40.924  -1.576   8.547  1.00  0.00     0.085 A 
ATOM      9  C8  UNK     1      39.319   0.629   7.925  1.00  0.00     0.075 A 
ATOM     10  C9  UNK     1      38.854  -0.664   7.685  1.00  0.00     0.071 A 
ATOM     11  C10 UNK     1      39.655  -1.765   7.996  1.00  0.00     0.074 A 
ENDROOT
BRANCH   5  12
ATOM     12  C4  UNK     1      42.573   3.762   9.420  1.00  0.00    -0.002 A 
ATOM     13  C12 UNK     1      43.854   4.228   9.116  1.00  0.00     0.017 A 
ATOM     14  C14 UNK     1      44.168   5.576   9.286  1.00  0.00     0.037 A 
ATOM     15  C15 UNK     1      43.203   6.464   9.761  1.00  0.00     0.065 A 
ATOM     16  C13 UNK     1      41.923   6.002  10.068  1.00  0.00     0.037 A 
ATOM     17  C11 UNK     1      41.608   4.654   9.897  1.00  0.00     0.017 A 
BRANCH  15  18
ATOM     18  O5  UNK     1      43.510   7.778   9.928  1.00  0.00    -0.361 OA
ATOM     19  H10 UNK     1      44.031   8.079   9.163  1.00  0.00     0.217 HD
ENDBRANCH  15  18
ENDBRANCH   5  12
BRANCH   8  20
ATOM     20  O2  UNK     1      41.665  -2.683   8.831  1.00  0.00    -0.360 OA
ATOM     21  H8  UNK     1      42.610  -2.497   8.717  1.00  0.00     0.217 HD
ENDBRANCH   8  20
BRANCH  10  22
ATOM     22  O4  UNK     1      37.618  -0.854   7.147  1.00  0.00    -0.361 OA
ATOM     23  H9  UNK     1      37.020  -0.162   7.479  1.00  0.00     0.217 HD
ENDBRANCH  10  22
TORSDOF 4
ENDMDL
MODEL 8
REMARK VINA RESULT:      -5.7      3.625      7.037
REMARK  4 active torsions:
REMARK  status: ('A' for Active; 'I' for Inactive)
REMARK    1  A    between atoms: O2_2  and  C7_12 
REMARK    2  A    between atoms: O4_4  and  C9_14 
REMARK    3  A    between atoms: O5_5  and  C15_20 
REMARK    4  A    between atoms: C3_8  and  C4_9 
ROOT
ATOM      1  O1  UNK     1      42.112   1.085   9.315  1.00  0.00    -0.309 OA
ATOM      2  O3  UNK     1      38.960   1.237   6.738  1.00  0.00    -0.287 OA
ATOM      3  C1  UNK     1      40.341  -0.081   8.130  1.00  0.00     0.081 A 
ATOM      4  C2  UNK     1      41.426  -0.062   9.004  1.00  0.00     0.095 A 
ATOM      5  C3  UNK     1      41.711   2.274   8.726  1.00  0.00     0.090 A 
ATOM      6  C5  UNK     1      39.906   1.180   7.511  1.00  0.00     0.190 A 
ATOM      7  C6  UNK     1      40.678   2.386   7.876  1.00  0.00     0.094 A 
ATOM      8  C7  UNK     1      39.679  -1.279   7.850  1.00  0.00     0.085 A 
ATOM      9  C8  UNK     1      41.858  -1.244   9.606  1.00  0.00     0.075 A 
ATOM     10  C9  UNK     1      41.200  -2.444   9.330  1.00  0.00     0.071 A 
ATOM     11  C10 UNK     1      40.113  -2.461   8.453  1.00  0.00     0.074 A 
ENDROOT
BRANCH   5  12
ATOM     12  C4  UNK     1      42.512   3.445   9.134  1.00  0.00    -0.002 A 
ATOM     13  C12 UNK     1      41.946   4.438   9.937  1.00  0.00     0.017 A 
ATOM     14  C14 UNK     1      42.704   5.544  10.321  1.00  0.00     0.037 A 
ATOM     15  C15 UNK     1      44.029   5.662   9.904  1.00  0.00     0.065 A 
ATOM     16  C13 UNK     1      44.597   4.673   9.101  1.00  0.00     0.037 A 
ATOM     17  C11 UNK     1      43.841   3.566   8.717  1.00  0.00     0.017 A 
BRANCH  15  18
ATOM     18  O5  UNK     1      44.767   6.742  10.278  1.00  0.00    -0.361 OA
ATOM     19  H10 UNK     1      45.109   6.593  11.177  1.00  0.00     0.217 HD
ENDBRANCH  15  18
ENDBRANCH   5  12
BRANCH   8  20
ATOM     20  O2  UNK     1      38.614  -1.350   7.005  1.00  0.00    -0.360 OA
ATOM     21  H8  UNK     1      38.853  -1.834   6.199  1.00  0.00     0.217 HD
ENDBRANCH   8  20
BRANCH  10  22
ATOM     22  O4  UNK     1      41.619  -3.599   9.915  1.00  0.00    -0.361 OA
ATOM     23  H9  UNK     1      42.559  -3.738   9.705  1.00  0.00     0.217 HD
ENDBRANCH  10  22
TORSDOF 4
ENDMDL
MODEL 9
REMARK VINA RESULT:      -5.7      3.665      6.616
REMARK  4 active torsions:
REMARK  status: ('A' for Active; 'I' for Inactive)
REMARK    1  A    between atoms: O2_2  and  C7_12 
REMARK    2  A    between atoms: O4_4  and  C9_14 
REMARK    3  A    between atoms: O5_5  and  C15_20 
REMARK    4  A    between atoms: C3_8  and  C4_9 
ROOT
ATOM      1  O1  UNK     1      40.996   2.117   8.681  1.00  0.00    -0.309 OA
ATOM      2  O3  UNK     1      43.472  -0.963   9.673  1.00  0.00    -0.287 OA
ATOM      3  C1  UNK     1      41.393  -0.277   8.784  1.00  0.00     0.081 A 
ATOM      4  C2  UNK     1      40.597   0.821   8.467  1.00  0.00     0.095 A 
ATOM      5  C3  UNK     1      42.243   2.339   9.245  1.00  0.00     0.090 A 
ATOM      6  C5  UNK     1      42.721  -0.046   9.373  1.00  0.00     0.190 A 
ATOM      7  C6  UNK     1      43.103   1.366   9.586  1.00  0.00     0.094 A 
ATOM      8  C7  UNK     1      40.936  -1.574   8.542  1.00  0.00     0.085 A 
ATOM      9  C8  UNK     1      39.335   0.630   7.905  1.00  0.00     0.075 A 
ATOM     10  C9  UNK     1      38.873  -0.664   7.662  1.00  0.00     0.071 A 
ATOM     11  C10 UNK     1      39.672  -1.765   7.981  1.00  0.00     0.074 A 
ENDROOT
BRANCH   5  12
ATOM     12  C4  UNK     1      42.573   3.766   9.426  1.00  0.00    -0.002 A 
ATOM     13  C12 UNK     1      41.602   4.659   9.884  1.00  0.00     0.017 A 
ATOM     14  C14 UNK     1      41.915   6.008  10.054  1.00  0.00     0.037 A 
ATOM     15  C15 UNK     1      43.200   6.468   9.768  1.00  0.00     0.065 A 
ATOM     16  C13 UNK     1      44.172   5.579   9.310  1.00  0.00     0.037 A 
ATOM     17  C11 UNK     1      43.860   4.230   9.140  1.00  0.00     0.017 A 
BRANCH  15  18
ATOM     18  O5  UNK     1      43.504   7.784   9.933  1.00  0.00    -0.361 OA
ATOM     19  H10 UNK     1      43.716   7.943  10.869  1.00  0.00     0.217 HD
ENDBRANCH  15  18
ENDBRANCH   5  12
BRANCH   8  20
ATOM     20  O2  UNK     1      41.675  -2.680   8.834  1.00  0.00    -0.360 OA
ATOM     21  H8  UNK     1      42.524  -2.427   9.230  1.00  0.00     0.217 HD
ENDBRANCH   8  20
BRANCH  10  22
ATOM     22  O4  UNK     1      37.642  -0.856   7.114  1.00  0.00    -0.361 OA
ATOM     23  H9  UNK     1      37.600  -0.390   6.261  1.00  0.00     0.217 HD
ENDBRANCH  10  22
TORSDOF 4
ENDMDL
MODEL 10
REMARK VINA RESULT:      -5.7      2.413      7.212
REMARK  4 active torsions:
REMARK  status: ('A' for Active; 'I' for Inactive)
REMARK    1  A    between atoms: O2_2  and  C7_12 
REMARK    2  A    between atoms: O4_4  and  C9_14 
REMARK    3  A    between atoms: O5_5  and  C15_20 
REMARK    4  A    between atoms: C3_8  and  C4_9 
ROOT
ATOM      1  O1  UNK     1      41.529   0.297   8.192  1.00  0.00    -0.309 OA
ATOM      2  O3  UNK     1      41.638  -2.705  10.944  1.00  0.00    -0.287 OA
ATOM      3  C1  UNK     1      40.346  -1.417   9.442  1.00  0.00     0.081 A 
ATOM      4  C2  UNK     1      40.380  -0.382   8.510  1.00  0.00     0.095 A 
ATOM      5  C3  UNK     1      42.706  -0.059   8.834  1.00  0.00     0.090 A 
ATOM      6  C5  UNK     1      41.594  -1.805  10.118  1.00  0.00     0.190 A 
ATOM      7  C6  UNK     1      42.803  -1.042   9.744  1.00  0.00     0.094 A 
ATOM      8  C7  UNK     1      39.147  -2.074   9.726  1.00  0.00     0.085 A 
ATOM      9  C8  UNK     1      39.211   0.004   7.854  1.00  0.00     0.075 A 
ATOM     10  C9  UNK     1      38.011  -0.649   8.134  1.00  0.00     0.071 A 
ATOM     11  C10 UNK     1      37.979  -1.686   9.069  1.00  0.00     0.074 A 
ENDROOT
BRANCH   5  12
ATOM     12  C4  UNK     1      43.880   0.730   8.414  1.00  0.00    -0.002 A 
ATOM     13  C12 UNK     1      43.844   1.466   7.228  1.00  0.00     0.017 A 
ATOM     14  C14 UNK     1      44.955   2.211   6.831  1.00  0.00     0.037 A 
ATOM     15  C15 UNK     1      46.106   2.222   7.620  1.00  0.00     0.065 A 
ATOM     16  C13 UNK     1      46.145   1.488   8.805  1.00  0.00     0.037 A 
ATOM     17  C11 UNK     1      45.035   0.743   9.202  1.00  0.00     0.017 A 
BRANCH  15  18
ATOM     18  O5  UNK     1      47.189   2.948   7.232  1.00  0.00    -0.361 OA
ATOM     19  H10 UNK     1      47.524   2.589   6.392  1.00  0.00     0.217 HD
ENDBRANCH  15  18
ENDBRANCH   5  12
BRANCH   8  20
ATOM     20  O2  UNK     1      39.062  -3.091  10.627  1.00  0.00    -0.360 OA
ATOM     21  H8  UNK     1      39.945  -3.338  10.946  1.00  0.00     0.217 HD
ENDBRANCH   8  20
BRANCH  10  22
ATOM     22  O4  UNK     1      36.868  -0.275   7.495  1.00  0.00    -0.361 OA
ATOM     23  H9  UNK     1      36.904  -0.588   6.574  1.00  0.00     0.217 HD
ENDBRANCH  10  22
TORSDOF 4
ENDMDL
MODEL 11
REMARK VINA RESULT:      -5.7      7.640     10.784
REMARK  4 active torsions:
REMARK  status: ('A' for Active; 'I' for Inactive)
REMARK    1  A    between atoms: O2_2  and  C7_12 
REMARK    2  A    between atoms: O4_4  and  C9_14 
REMARK    3  A    between atoms: O5_5  and  C15_20 
REMARK    4  A    between atoms: C3_8  and  C4_9 
ROOT
ATOM      1  O1  UNK     1      37.959  -4.950   5.662  1.00  0.00    -0.309 OA
ATOM      2  O3  UNK     1      37.363  -6.141   9.512  1.00  0.00    -0.287 OA
ATOM      3  C1  UNK     1      37.873  -4.380   8.021  1.00  0.00     0.081 A 
ATOM      4  C2  UNK     1      38.064  -4.040   6.684  1.00  0.00     0.095 A 
ATOM      5  C3  UNK     1      37.660  -6.266   5.978  1.00  0.00     0.090 A 
ATOM      6  C5  UNK     1      37.545  -5.774   8.360  1.00  0.00     0.190 A 
ATOM      7  C6  UNK     1      37.447  -6.715   7.226  1.00  0.00     0.094 A 
ATOM      8  C7  UNK     1      37.991  -3.412   9.021  1.00  0.00     0.085 A 
ATOM      9  C8  UNK     1      38.373  -2.725   6.335  1.00  0.00     0.075 A 
ATOM     10  C9  UNK     1      38.492  -1.754   7.330  1.00  0.00     0.071 A 
ATOM     11  C10 UNK     1      38.302  -2.097   8.670  1.00  0.00     0.074 A 
ENDROOT
BRANCH   5  12
ATOM     12  C4  UNK     1      37.566  -7.158   4.805  1.00  0.00    -0.002 A 
ATOM     13  C12 UNK     1      38.547  -8.126   4.579  1.00  0.00     0.017 A 
ATOM     14  C14 UNK     1      38.459  -8.968   3.470  1.00  0.00     0.037 A 
ATOM     15  C15 UNK     1      37.389  -8.844   2.584  1.00  0.00     0.065 A 
ATOM     16  C13 UNK     1      36.408  -7.878   2.806  1.00  0.00     0.037 A 
ATOM     17  C11 UNK     1      36.495  -7.036   3.915  1.00  0.00     0.017 A 
BRANCH  15  18
ATOM     18  O5  UNK     1      37.303  -9.665   1.502  1.00  0.00    -0.361 OA
ATOM     19  H10 UNK     1      37.745  -9.238   0.748  1.00  0.00     0.217 HD
ENDBRANCH  15  18
ENDBRANCH   5  12
BRANCH   8  20
ATOM     20  O2  UNK     1      37.814  -3.693  10.341  1.00  0.00    -0.360 OA
ATOM     21  H8  UNK     1      37.924  -2.892  10.877  1.00  0.00     0.217 HD
ENDBRANCH   8  20
BRANCH  10  22
ATOM     22  O4  UNK     1      38.794  -0.470   6.993  1.00  0.00    -0.361 OA
ATOM     23  H9  UNK     1      38.915   0.050   7.807  1.00  0.00     0.217 HD
ENDBRANCH  10  22
TORSDOF 4
ENDMDL
MODEL 12
REMARK VINA RESULT:      -5.7      5.908      9.339
REMARK  4 active torsions:
REMARK  status: ('A' for Active; 'I' for Inactive)
REMARK    1  A    between atoms: O2_2  and  C7_12 
REMARK    2  A    between atoms: O4_4  and  C9_14 
REMARK    3  A    between atoms: O5_5  and  C15_20 
REMARK    4  A    between atoms: C3_8  and  C4_9 
ROOT
ATOM      1  O1  UNK     1      38.353  -0.856   7.659  1.00  0.00    -0.309 OA
ATOM      2  O3  UNK     1      34.457  -1.500   8.664  1.00  0.00    -0.287 OA
ATOM      3  C1  UNK     1      36.380  -2.266   7.524  1.00  0.00     0.081 A 
ATOM      4  C2  UNK     1      37.710  -1.985   7.219  1.00  0.00     0.095 A 
ATOM      5  C3  UNK     1      37.642   0.048   8.436  1.00  0.00     0.090 A 
ATOM      6  C5  UNK     1      35.626  -1.315   8.356  1.00  0.00     0.190 A 
ATOM      7  C6  UNK     1      36.361  -0.114   8.803  1.00  0.00     0.094 A 
ATOM      8  C7  UNK     1      35.776  -3.432   7.049  1.00  0.00     0.085 A 
ATOM      9  C8  UNK     1      38.447  -2.871   6.434  1.00  0.00     0.075 A 
ATOM     10  C9  UNK     1      37.849  -4.038   5.956  1.00  0.00     0.071 A 
ATOM     11  C10 UNK     1      36.516  -4.317   6.262  1.00  0.00     0.074 A 
ENDROOT
BRANCH   5  12
ATOM     12  C4  UNK     1      38.430   1.222   8.860  1.00  0.00    -0.002 A 
ATOM     13  C12 UNK     1      39.352   1.802   7.986  1.00  0.00     0.017 A 
ATOM     14  C14 UNK     1      40.096   2.911   8.388  1.00  0.00     0.037 A 
ATOM     15  C15 UNK     1      39.921   3.445   9.664  1.00  0.00     0.065 A 
ATOM     16  C13 UNK     1      39.001   2.868  10.540  1.00  0.00     0.037 A 
ATOM     17  C11 UNK     1      38.256   1.759  10.139  1.00  0.00     0.017 A 
BRANCH  15  18
ATOM     18  O5  UNK     1      40.647   4.526  10.056  1.00  0.00    -0.361 OA
ATOM     19  H10 UNK     1      41.422   4.220  10.558  1.00  0.00     0.217 HD
ENDBRANCH  15  18
ENDBRANCH   5  12
BRANCH   8  20
ATOM     20  O2  UNK     1      34.481  -3.752   7.319  1.00  0.00    -0.360 OA
ATOM     21  H8  UNK     1      34.214  -3.390   8.178  1.00  0.00     0.217 HD
ENDBRANCH   8  20
BRANCH  10  22
ATOM     22  O4  UNK     1      38.566  -4.905   5.189  1.00  0.00    -0.361 OA
ATOM     23  H9  UNK     1      39.390  -4.470   4.908  1.00  0.00     0.217 HD
ENDBRANCH  10  22
TORSDOF 4
ENDMDL
MODEL 13
REMARK VINA RESULT:      -5.6      6.577     10.336
REMARK  4 active torsions:
REMARK  status: ('A' for Active; 'I' for Inactive)
REMARK    1  A    between atoms: O2_2  and  C7_12 
REMARK    2  A    between atoms: O4_4  and  C9_14 
REMARK    3  A    between atoms: O5_5  and  C15_20 
REMARK    4  A    between atoms: C3_8  and  C4_9 
ROOT
ATOM      1  O1  UNK     1      38.517  -4.424   5.963  1.00  0.00    -0.309 OA
ATOM      2  O3  UNK     1      34.981  -2.591   6.820  1.00  0.00    -0.287 OA
ATOM      3  C1  UNK     1      37.339  -2.559   6.979  1.00  0.00     0.081 A 
ATOM      4  C2  UNK     1      38.511  -3.238   6.652  1.00  0.00     0.095 A 
ATOM      5  C3  UNK     1      37.302  -4.974   5.583  1.00  0.00     0.090 A 
ATOM      6  C5  UNK     1      36.048  -3.134   6.569  1.00  0.00     0.190 A 
ATOM      7  C6  UNK     1      36.108  -4.413   5.832  1.00  0.00     0.094 A 
ATOM      8  C7  UNK     1      37.392  -1.354   7.682  1.00  0.00     0.085 A 
ATOM      9  C8  UNK     1      39.748  -2.714   7.027  1.00  0.00     0.075 A 
ATOM     10  C9  UNK     1      39.807  -1.510   7.730  1.00  0.00     0.071 A 
ATOM     11  C10 UNK     1      38.631  -0.831   8.057  1.00  0.00     0.074 A 
ENDROOT
BRANCH   5  12
ATOM     12  C4  UNK     1      37.424  -6.245   4.843  1.00  0.00    -0.002 A 
ATOM     13  C12 UNK     1      36.690  -6.450   3.673  1.00  0.00     0.017 A 
ATOM     14  C14 UNK     1      36.805  -7.652   2.975  1.00  0.00     0.037 A 
ATOM     15  C15 UNK     1      37.655  -8.654   3.445  1.00  0.00     0.065 A 
ATOM     16  C13 UNK     1      38.389  -8.453   4.614  1.00  0.00     0.037 A 
ATOM     17  C11 UNK     1      38.274  -7.251   5.312  1.00  0.00     0.017 A 
BRANCH  15  18
ATOM     18  O5  UNK     1      37.766  -9.826   2.764  1.00  0.00    -0.361 OA
ATOM     19  H10 UNK     1      37.004 -10.390   2.982  1.00  0.00     0.217 HD
ENDBRANCH  15  18
ENDBRANCH   5  12
BRANCH   8  20
ATOM     20  O2  UNK     1      36.276  -0.653   8.024  1.00  0.00    -0.360 OA
ATOM     21  H8  UNK     1      35.493  -1.030   7.594  1.00  0.00     0.217 HD
ENDBRANCH   8  20
BRANCH  10  22
ATOM     22  O4  UNK     1      41.013  -0.995   8.098  1.00  0.00    -0.361 OA
ATOM     23  H9  UNK     1      41.261  -0.294   7.471  1.00  0.00     0.217 HD
ENDBRANCH  10  22
TORSDOF 4
ENDMDL
MODEL 14
REMARK VINA RESULT:      -5.6      1.956      6.735
REMARK  4 active torsions:
REMARK  status: ('A' for Active; 'I' for Inactive)
REMARK    1  A    between atoms: O2_2  and  C7_12 
REMARK    2  A    between atoms: O4_4  and  C9_14 
REMARK    3  A    between atoms: O5_5  and  C15_20 
REMARK    4  A    between atoms: C3_8  and  C4_9 
ROOT
ATOM      1  O1  UNK     1      42.701   2.019   7.888  1.00  0.00    -0.309 OA
ATOM      2  O3  UNK     1      42.263  -1.548   9.807  1.00  0.00    -0.287 OA
ATOM      3  C1  UNK     1      41.283   0.133   8.466  1.00  0.00     0.081 A 
ATOM      4  C2  UNK     1      41.501   1.355   7.833  1.00  0.00     0.095 A 
ATOM      5  C3  UNK     1      43.737   1.451   8.614  1.00  0.00     0.090 A 
ATOM      6  C5  UNK     1      42.383  -0.478   9.229  1.00  0.00     0.190 A 
ATOM      7  C6  UNK     1      43.653   0.278   9.260  1.00  0.00     0.094 A 
ATOM      8  C7  UNK     1      40.042  -0.499   8.375  1.00  0.00     0.085 A 
ATOM      9  C8  UNK     1      40.476   1.954   7.101  1.00  0.00     0.075 A 
ATOM     10  C9  UNK     1      39.233   1.327   7.007  1.00  0.00     0.071 A 
ATOM     11  C10 UNK     1      39.016   0.102   7.644  1.00  0.00     0.074 A 
ENDROOT
BRANCH   5  12
ATOM     12  C4  UNK     1      44.982   2.245   8.603  1.00  0.00    -0.002 A 
ATOM     13  C12 UNK     1      44.949   3.606   8.913  1.00  0.00     0.017 A 
ATOM     14  C14 UNK     1      46.125   4.356   8.901  1.00  0.00     0.037 A 
ATOM     15  C15 UNK     1      47.338   3.746   8.580  1.00  0.00     0.065 A 
ATOM     16  C13 UNK     1      47.374   2.387   8.269  1.00  0.00     0.037 A 
ATOM     17  C11 UNK     1      46.198   1.637   8.280  1.00  0.00     0.017 A 
BRANCH  15  18
ATOM     18  O5  UNK     1      48.485   4.478   8.568  1.00  0.00    -0.361 OA
ATOM     19  H10 UNK     1      48.556   4.938   7.713  1.00  0.00     0.217 HD
ENDBRANCH  15  18
ENDBRANCH   5  12
BRANCH   8  20
ATOM     20  O2  UNK     1      39.779  -1.693   8.975  1.00  0.00    -0.360 OA
ATOM     21  H8  UNK     1      39.157  -2.212   8.441  1.00  0.00     0.217 HD
ENDBRANCH   8  20
BRANCH  10  22
ATOM     22  O4  UNK     1      38.229   1.909   6.294  1.00  0.00    -0.361 OA
ATOM     23  H9  UNK     1      37.472   1.300   6.261  1.00  0.00     0.217 HD
ENDBRANCH  10  22
TORSDOF 4
ENDMDL
MODEL 15
REMARK VINA RESULT:      -5.6      5.679      8.517
REMARK  4 active torsions:
REMARK  status: ('A' for Active; 'I' for Inactive)
REMARK    1  A    between atoms: O2_2  and  C7_12 
REMARK    2  A    between atoms: O4_4  and  C9_14 
REMARK    3  A    between atoms: O5_5  and  C15_20 
REMARK    4  A    between atoms: C3_8  and  C4_9 
ROOT
ATOM      1  O1  UNK     1      38.904  -1.120   8.050  1.00  0.00    -0.309 OA
ATOM      2  O3  UNK     1      37.556  -3.374  11.165  1.00  0.00    -0.287 OA
ATOM      3  C1  UNK     1      38.047  -3.245   8.857  1.00  0.00     0.081 A 
ATOM      4  C2  UNK     1      38.518  -2.420   7.838  1.00  0.00     0.095 A 
ATOM      5  C3  UNK     1      38.813  -0.605   9.334  1.00  0.00     0.090 A 
ATOM      6  C5  UNK     1      37.957  -2.706  10.223  1.00  0.00     0.190 A 
ATOM      7  C6  UNK     1      38.382  -1.302  10.399  1.00  0.00     0.094 A 
ATOM      8  C7  UNK     1      37.668  -4.561   8.584  1.00  0.00     0.085 A 
ATOM      9  C8  UNK     1      38.614  -2.907   6.535  1.00  0.00     0.075 A 
ATOM     10  C9  UNK     1      38.237  -4.221   6.256  1.00  0.00     0.071 A 
ATOM     11  C10 UNK     1      37.764  -5.046   7.278  1.00  0.00     0.074 A 
ENDROOT
BRANCH   5  12
ATOM     12  C4  UNK     1      39.258   0.797   9.451  1.00  0.00    -0.002 A 
ATOM     13  C12 UNK     1      38.836   1.581  10.527  1.00  0.00     0.017 A 
ATOM     14  C14 UNK     1      39.257   2.906  10.637  1.00  0.00     0.037 A 
ATOM     15  C15 UNK     1      40.101   3.452   9.670  1.00  0.00     0.065 A 
ATOM     16  C13 UNK     1      40.525   2.673   8.594  1.00  0.00     0.037 A 
ATOM     17  C11 UNK     1      40.104   1.347   8.484  1.00  0.00     0.017 A 
BRANCH  15  18
ATOM     18  O5  UNK     1      40.511   4.745   9.777  1.00  0.00    -0.361 OA
ATOM     19  H10 UNK     1      39.753   5.294  10.043  1.00  0.00     0.217 HD
ENDBRANCH  15  18
ENDBRANCH   5  12
BRANCH   8  20
ATOM     20  O2  UNK     1      37.202  -5.406   9.544  1.00  0.00    -0.360 OA
ATOM     21  H8  UNK     1      36.739  -6.156   9.140  1.00  0.00     0.217 HD
ENDBRANCH   8  20
BRANCH  10  22
ATOM     22  O4  UNK     1      38.330  -4.700   4.985  1.00  0.00    -0.361 OA
ATOM     23  H9  UNK     1      39.048  -4.233   4.523  1.00  0.00     0.217 HD
ENDBRANCH  10  22
TORSDOF 4
ENDMDL
MODEL 16
REMARK VINA RESULT:      -5.6      2.539      3.367
REMARK  4 active torsions:
REMARK  status: ('A' for Active; 'I' for Inactive)
REMARK    1  A    between atoms: O2_2  and  C7_12 
REMARK    2  A    between atoms: O4_4  and  C9_14 
REMARK    3  A    between atoms: O5_5  and  C15_20 
REMARK    4  A    between atoms: C3_8  and  C4_9 
ROOT
ATOM      1  O1  UNK     1      42.684   3.194   8.712  1.00  0.00    -0.309 OA
ATOM      2  O3  UNK     1      46.078   1.599   7.121  1.00  0.00    -0.287 OA
ATOM      3  C1  UNK     1      45.087   3.330   8.388  1.00  0.00     0.081 A 
ATOM      4  C2  UNK     1      43.890   3.820   8.904  1.00  0.00     0.095 A 
ATOM      5  C3  UNK     1      42.658   2.028   7.963  1.00  0.00     0.090 A 
ATOM      6  C5  UNK     1      45.065   2.087   7.602  1.00  0.00     0.190 A 
ATOM      7  C6  UNK     1      43.743   1.453   7.421  1.00  0.00     0.094 A 
ATOM      8  C7  UNK     1      46.286   4.009   8.616  1.00  0.00     0.085 A 
ATOM      9  C8  UNK     1      43.883   4.996   9.655  1.00  0.00     0.075 A 
ATOM     10  C9  UNK     1      45.078   5.678   9.886  1.00  0.00     0.071 A 
ATOM     11  C10 UNK     1      46.278   5.186   9.367  1.00  0.00     0.074 A 
ENDROOT
BRANCH   5  12
ATOM     12  C4  UNK     1      41.313   1.435   7.823  1.00  0.00    -0.002 A 
ATOM     13  C12 UNK     1      41.080   0.119   8.227  1.00  0.00     0.017 A 
ATOM     14  C14 UNK     1      39.809  -0.441   8.094  1.00  0.00     0.037 A 
ATOM     15  C15 UNK     1      38.767   0.314   7.557  1.00  0.00     0.065 A 
ATOM     16  C13 UNK     1      38.996   1.629   7.152  1.00  0.00     0.037 A 
ATOM     17  C11 UNK     1      40.266   2.190   7.285  1.00  0.00     0.017 A 
BRANCH  15  18
ATOM     18  O5  UNK     1      37.528  -0.232   7.426  1.00  0.00    -0.361 OA
ATOM     19  H10 UNK     1      37.215  -0.516   8.303  1.00  0.00     0.217 HD
ENDBRANCH  15  18
ENDBRANCH   5  12
BRANCH   8  20
ATOM     20  O2  UNK     1      47.482   3.571   8.134  1.00  0.00    -0.360 OA
ATOM     21  H8  UNK     1      48.129   4.293   8.126  1.00  0.00     0.217 HD
ENDBRANCH   8  20
BRANCH  10  22
ATOM     22  O4  UNK     1      45.076   6.826  10.619  1.00  0.00    -0.361 OA
ATOM     23  H9  UNK     1      44.182   7.210  10.600  1.00  0.00     0.217 HD
ENDBRANCH  10  22
TORSDOF 4
ENDMDL
MODEL 17
REMARK VINA RESULT:      -5.6      2.305      4.454
REMARK  4 active torsions:
REMARK  status: ('A' for Active; 'I' for Inactive)
REMARK    1  A    between atoms: O2_2  and  C7_12 
REMARK    2  A    between atoms: O4_4  and  C9_14 
REMARK    3  A    between atoms: O5_5  and  C15_20 
REMARK    4  A    between atoms: C3_8  and  C4_9 
ROOT
ATOM      1  O1  UNK     1      47.968   1.648   9.538  1.00  0.00    -0.309 OA
ATOM      2  O3  UNK     1      49.750   3.987   6.718  1.00  0.00    -0.287 OA
ATOM      3  C1  UNK     1      49.931   2.868   8.791  1.00  0.00     0.081 A 
ATOM      4  C2  UNK     1      49.263   2.067   9.715  1.00  0.00     0.095 A 
ATOM      5  C3  UNK     1      47.295   2.048   8.394  1.00  0.00     0.090 A 
ATOM      6  C5  UNK     1      49.223   3.286   7.571  1.00  0.00     0.190 A 
ATOM      7  C6  UNK     1      47.832   2.812   7.429  1.00  0.00     0.094 A 
ATOM      8  C7  UNK     1      51.250   3.264   9.022  1.00  0.00     0.085 A 
ATOM      9  C8  UNK     1      49.911   1.655  10.879  1.00  0.00     0.075 A 
ATOM     10  C9  UNK     1      51.229   2.048  11.115  1.00  0.00     0.071 A 
ATOM     11  C10 UNK     1      51.897   2.852  10.189  1.00  0.00     0.074 A 
ENDROOT
BRANCH   5  12
ATOM     12  C4  UNK     1      45.913   1.537   8.302  1.00  0.00    -0.002 A 
ATOM     13  C12 UNK     1      45.142   1.797   7.167  1.00  0.00     0.017 A 
ATOM     14  C14 UNK     1      43.836   1.315   7.081  1.00  0.00     0.037 A 
ATOM     15  C15 UNK     1      43.296   0.571   8.130  1.00  0.00     0.065 A 
ATOM     16  C13 UNK     1      44.062   0.311   9.266  1.00  0.00     0.037 A 
ATOM     17  C11 UNK     1      45.369   0.793   9.353  1.00  0.00     0.017 A 
BRANCH  15  18
ATOM     18  O5  UNK     1      42.022   0.102   8.046  1.00  0.00    -0.361 OA
ATOM     19  H10 UNK     1      41.586   0.510   7.278  1.00  0.00     0.217 HD
ENDBRANCH  15  18
ENDBRANCH   5  12
BRANCH   8  20
ATOM     20  O2  UNK     1      51.946   4.046   8.151  1.00  0.00    -0.360 OA
ATOM     21  H8  UNK     1      52.357   3.502   7.462  1.00  0.00     0.217 HD
ENDBRANCH   8  20
BRANCH  10  22
ATOM     22  O4  UNK     1      51.865   1.648  12.250  1.00  0.00    -0.361 OA
ATOM     23  H9  UNK     1      51.199   1.439  12.928  1.00  0.00     0.217 HD
ENDBRANCH  10  22
TORSDOF 4
ENDMDL
MODEL 18
REMARK VINA RESULT:      -5.5      3.209      4.493
REMARK  4 active torsions:
REMARK  status: ('A' for Active; 'I' for Inactive)
REMARK    1  A    between atoms: O2_2  and  C7_12 
REMARK    2  A    between atoms: O4_4  and  C9_14 
REMARK    3  A    between atoms: O5_5  and  C15_20 
REMARK    4  A    between atoms: C3_8  and  C4_9 
ROOT
ATOM      1  O1  UNK     1      41.548   3.274   9.083  1.00  0.00    -0.309 OA
ATOM      2  O3  UNK     1      45.397   2.875   7.810  1.00  0.00    -0.287 OA
ATOM      3  C1  UNK     1      43.814   4.145   9.020  1.00  0.00     0.081 A 
ATOM      4  C2  UNK     1      42.483   4.220   9.422  1.00  0.00     0.095 A 
ATOM      5  C3  UNK     1      41.947   2.203   8.298  1.00  0.00     0.090 A 
ATOM      6  C5  UNK     1      44.244   3.005   8.196  1.00  0.00     0.190 A 
ATOM      7  C6  UNK     1      43.201   2.016   7.856  1.00  0.00     0.094 A 
ATOM      8  C7  UNK     1      44.723   5.137   9.396  1.00  0.00     0.085 A 
ATOM      9  C8  UNK     1      42.049   5.290  10.205  1.00  0.00     0.075 A 
ATOM     10  C9  UNK     1      42.953   6.283  10.584  1.00  0.00     0.071 A 
ATOM     11  C10 UNK     1      44.288   6.207  10.179  1.00  0.00     0.074 A 
ENDROOT
BRANCH   5  12
ATOM     12  C4  UNK     1      40.866   1.244   7.998  1.00  0.00    -0.002 A 
ATOM     13  C12 UNK     1      41.053  -0.120   8.230  1.00  0.00     0.017 A 
ATOM     14  C14 UNK     1      40.031  -1.026   7.945  1.00  0.00     0.037 A 
ATOM     15  C15 UNK     1      38.818  -0.570   7.427  1.00  0.00     0.065 A 
ATOM     16  C13 UNK     1      38.629   0.792   7.194  1.00  0.00     0.037 A 
ATOM     17  C11 UNK     1      39.650   1.698   7.479  1.00  0.00     0.017 A 
BRANCH  15  18
ATOM     18  O5  UNK     1      37.823  -1.454   7.149  1.00  0.00    -0.361 OA
ATOM     19  H10 UNK     1      37.240  -1.069   6.471  1.00  0.00     0.217 HD
ENDBRANCH  15  18
ENDBRANCH   5  12
BRANCH   8  20
ATOM     20  O2  UNK     1      46.034   5.110   9.029  1.00  0.00    -0.360 OA
ATOM     21  H8  UNK     1      46.605   5.254   9.799  1.00  0.00     0.217 HD
ENDBRANCH   8  20
BRANCH  10  22
ATOM     22  O4  UNK     1      42.534   7.329  11.348  1.00  0.00    -0.361 OA
ATOM     23  H9  UNK     1      43.288   7.668  11.860  1.00  0.00     0.217 HD
ENDBRANCH  10  22
TORSDOF 4
ENDMDL
MODEL 19
REMARK VINA RESULT:      -5.5      2.559      7.083
REMARK  4 active torsions:
REMARK  status: ('A' for Active; 'I' for Inactive)
REMARK    1  A    between atoms: O2_2  and  C7_12 
REMARK    2  A    between atoms: O4_4  and  C9_14 
REMARK    3  A    between atoms: O5_5  and  C15_20 
REMARK    4  A    between atoms: C3_8  and  C4_9 
ROOT
ATOM      1  O1  UNK     1      44.307   2.566   8.282  1.00  0.00    -0.309 OA
ATOM      2  O3  UNK     1      42.382   5.562  10.262  1.00  0.00    -0.287 OA
ATOM      3  C1  UNK     1      42.242   3.455   9.202  1.00  0.00     0.081 A 
ATOM      4  C2  UNK     1      42.961   2.468   8.532  1.00  0.00     0.095 A 
ATOM      5  C3  UNK     1      44.976   3.703   8.709  1.00  0.00     0.090 A 
ATOM      6  C5  UNK     1      42.950   4.658   9.666  1.00  0.00     0.190 A 
ATOM      7  C6  UNK     1      44.396   4.718   9.370  1.00  0.00     0.094 A 
ATOM      8  C7  UNK     1      40.873   3.301   9.430  1.00  0.00     0.085 A 
ATOM      9  C8  UNK     1      42.314   1.316   8.084  1.00  0.00     0.075 A 
ATOM     10  C9  UNK     1      40.946   1.157   8.309  1.00  0.00     0.071 A 
ATOM     11  C10 UNK     1      40.226   2.148   8.980  1.00  0.00     0.074 A 
ENDROOT
BRANCH   5  12
ATOM     12  C4  UNK     1      46.418   3.703   8.394  1.00  0.00    -0.002 A 
ATOM     13  C12 UNK     1      47.297   4.500   9.131  1.00  0.00     0.017 A 
ATOM     14  C14 UNK     1      48.660   4.501   8.832  1.00  0.00     0.037 A 
ATOM     15  C15 UNK     1      49.148   3.704   7.796  1.00  0.00     0.065 A 
ATOM     16  C13 UNK     1      48.273   2.908   7.058  1.00  0.00     0.037 A 
ATOM     17  C11 UNK     1      46.910   2.906   7.357  1.00  0.00     0.017 A 
BRANCH  15  18
ATOM     18  O5  UNK     1      50.477   3.705   7.505  1.00  0.00    -0.361 OA
ATOM     19  H10 UNK     1      50.981   3.772   8.335  1.00  0.00     0.217 HD
ENDBRANCH  15  18
ENDBRANCH   5  12
BRANCH   8  20
ATOM     20  O2  UNK     1      40.126   4.236  10.079  1.00  0.00    -0.360 OA
ATOM     21  H8  UNK     1      40.654   5.030  10.256  1.00  0.00     0.217 HD
ENDBRANCH   8  20
BRANCH  10  22
ATOM     22  O4  UNK     1      40.311   0.034   7.873  1.00  0.00    -0.361 OA
ATOM     23  H9  UNK     1      40.628  -0.181   6.979  1.00  0.00     0.217 HD
ENDBRANCH  10  22
TORSDOF 4
ENDMDL
MODEL 20
REMARK VINA RESULT:      -5.4      4.129      8.596
REMARK  4 active torsions:
REMARK  status: ('A' for Active; 'I' for Inactive)
REMARK    1  A    between atoms: O2_2  and  C7_12 
REMARK    2  A    between atoms: O4_4  and  C9_14 
REMARK    3  A    between atoms: O5_5  and  C15_20 
REMARK    4  A    between atoms: C3_8  and  C4_9 
ROOT
ATOM      1  O1  UNK     1      39.505  -0.361   7.757  1.00  0.00    -0.309 OA
ATOM      2  O3  UNK     1      35.656  -0.082   9.063  1.00  0.00    -0.287 OA
ATOM      3  C1  UNK     1      37.269  -1.306   7.845  1.00  0.00     0.081 A 
ATOM      4  C2  UNK     1      38.599  -1.340   7.432  1.00  0.00     0.095 A 
ATOM      5  C3  UNK     1      39.072   0.712   8.521  1.00  0.00     0.090 A 
ATOM      6  C5  UNK     1      36.808  -0.174   8.665  1.00  0.00     0.190 A 
ATOM      7  C6  UNK     1      37.820   0.854   8.984  1.00  0.00     0.094 A 
ATOM      8  C7  UNK     1      36.391  -2.331   7.486  1.00  0.00     0.085 A 
ATOM      9  C8  UNK     1      39.062  -2.402   6.656  1.00  0.00     0.075 A 
ATOM     10  C9  UNK     1      38.189  -3.429   6.294  1.00  0.00     0.071 A 
ATOM     11  C10 UNK     1      36.855  -3.393   6.708  1.00  0.00     0.074 A 
ENDROOT
BRANCH   5  12
ATOM     12  C4  UNK     1      40.127   1.702   8.816  1.00  0.00    -0.002 A 
ATOM     13  C12 UNK     1      41.449   1.452   8.442  1.00  0.00     0.017 A 
ATOM     14  C14 UNK     1      42.445   2.387   8.721  1.00  0.00     0.037 A 
ATOM     15  C15 UNK     1      42.122   3.576   9.376  1.00  0.00     0.065 A 
ATOM     16  C13 UNK     1      40.803   3.828   9.752  1.00  0.00     0.037 A 
ATOM     17  C11 UNK     1      39.807   2.893   9.473  1.00  0.00     0.017 A 
BRANCH  15  18
ATOM     18  O5  UNK     1      43.095   4.487   9.649  1.00  0.00    -0.361 OA
ATOM     19  H10 UNK     1      43.747   4.478   8.927  1.00  0.00     0.217 HD
ENDBRANCH  15  18
ENDBRANCH   5  12
BRANCH   8  20
ATOM     20  O2  UNK     1      35.082  -2.344   7.864  1.00  0.00    -0.360 OA
ATOM     21  H8  UNK     1      34.944  -1.764   8.628  1.00  0.00     0.217 HD
ENDBRANCH   8  20
BRANCH  10  22
ATOM     22  O4  UNK     1      38.637  -4.467   5.536  1.00  0.00    -0.361 OA
ATOM     23  H9  UNK     1      38.024  -4.603   4.793  1.00  0.00     0.217 HD
ENDBRANCH  10  22
TORSDOF 4
ENDMDL
