MODEL 1
REMARK VINA RESULT:      -7.9      0.000      0.000
REMARK  4 active torsions:
REMARK  status: ('A' for Active; 'I' for Inactive)
REMARK    1  A    between atoms: O2_2  and  C7_12 
REMARK    2  A    between atoms: O4_4  and  C9_14 
REMARK    3  A    between atoms: O5_5  and  C15_20 
REMARK    4  A    between atoms: C3_8  and  C4_9 
ROOT
ATOM      1  O1  UNK     1      39.741  15.492  -0.046  1.00  0.00    -0.309 OA
ATOM      2  O3  UNK     1      41.195  16.436  -3.733  1.00  0.00    -0.287 OA
ATOM      3  C1  UNK     1      40.021  17.141  -1.807  1.00  0.00     0.081 A 
ATOM      4  C2  UNK     1      39.552  16.752  -0.555  1.00  0.00     0.095 A 
ATOM      5  C3  UNK     1      40.422  14.564  -0.819  1.00  0.00     0.090 A 
ATOM      6  C5  UNK     1      40.753  16.162  -2.626  1.00  0.00     0.190 A 
ATOM      7  C6  UNK     1      40.929  14.819  -2.036  1.00  0.00     0.094 A 
ATOM      8  C7  UNK     1      39.800  18.438  -2.274  1.00  0.00     0.085 A 
ATOM      9  C8  UNK     1      38.856  17.662   0.242  1.00  0.00     0.075 A 
ATOM     10  C9  UNK     1      38.632  18.959  -0.219  1.00  0.00     0.071 A 
ATOM     11  C10 UNK     1      39.103  19.347  -1.475  1.00  0.00     0.074 A 
ENDROOT
BRANCH   5  12
ATOM     12  C4  UNK     1      40.574  13.244  -0.176  1.00  0.00    -0.002 A 
ATOM     13  C12 UNK     1      40.250  13.079   1.173  1.00  0.00     0.017 A 
ATOM     14  C14 UNK     1      40.395  11.832   1.780  1.00  0.00     0.037 A 
ATOM     15  C15 UNK     1      40.864  10.745   1.042  1.00  0.00     0.065 A 
ATOM     16  C13 UNK     1      41.190  10.907  -0.305  1.00  0.00     0.037 A 
ATOM     17  C11 UNK     1      41.045  12.154  -0.913  1.00  0.00     0.017 A 
BRANCH  15  18
ATOM     18  O5  UNK     1      41.006   9.529   1.635  1.00  0.00    -0.361 OA
ATOM     19  H10 UNK     1      40.255   9.383   2.236  1.00  0.00     0.217 HD
ENDBRANCH  15  18
ENDBRANCH   5  12
BRANCH   8  20
ATOM     20  O2  UNK     1      40.239  18.867  -3.490  1.00  0.00    -0.360 OA
ATOM     21  H8  UNK     1      39.894  18.297  -4.195  1.00  0.00     0.217 HD
ENDBRANCH   8  20
BRANCH  10  22
ATOM     22  O4  UNK     1      37.954  19.849   0.556  1.00  0.00    -0.361 OA
ATOM     23  H9  UNK     1      38.354  19.865   1.443  1.00  0.00     0.217 HD
ENDBRANCH  10  22
TORSDOF 4
ENDMDL
MODEL 2
REMARK VINA RESULT:      -7.9      0.021      1.081
REMARK  4 active torsions:
REMARK  status: ('A' for Active; 'I' for Inactive)
REMARK    1  A    between atoms: O2_2  and  C7_12 
REMARK    2  A    between atoms: O4_4  and  C9_14 
REMARK    3  A    between atoms: O5_5  and  C15_20 
REMARK    4  A    between atoms: C3_8  and  C4_9 
ROOT
ATOM      1  O1  UNK     1      39.744  15.497  -0.066  1.00  0.00    -0.309 OA
ATOM      2  O3  UNK     1      41.214  16.441  -3.746  1.00  0.00    -0.287 OA
ATOM      3  C1  UNK     1      40.032  17.146  -1.826  1.00  0.00     0.081 A 
ATOM      4  C2  UNK     1      39.557  16.758  -0.575  1.00  0.00     0.095 A 
ATOM      5  C3  UNK     1      40.429  14.569  -0.835  1.00  0.00     0.090 A 
ATOM      6  C5  UNK     1      40.768  16.167  -2.642  1.00  0.00     0.190 A 
ATOM      7  C6  UNK     1      40.940  14.824  -2.050  1.00  0.00     0.094 A 
ATOM      8  C7  UNK     1      39.813  18.443  -2.294  1.00  0.00     0.085 A 
ATOM      9  C8  UNK     1      38.858  17.667   0.218  1.00  0.00     0.075 A 
ATOM     10  C9  UNK     1      38.636  18.964  -0.244  1.00  0.00     0.071 A 
ATOM     11  C10 UNK     1      39.112  19.352  -1.499  1.00  0.00     0.074 A 
ENDROOT
BRANCH   5  12
ATOM     12  C4  UNK     1      40.578  13.249  -0.191  1.00  0.00    -0.002 A 
ATOM     13  C12 UNK     1      41.051  12.159  -0.924  1.00  0.00     0.017 A 
ATOM     14  C14 UNK     1      41.191  10.912  -0.315  1.00  0.00     0.037 A 
ATOM     15  C15 UNK     1      40.858  10.751   1.030  1.00  0.00     0.065 A 
ATOM     16  C13 UNK     1      40.384  11.838   1.765  1.00  0.00     0.037 A 
ATOM     17  C11 UNK     1      40.245  13.085   1.157  1.00  0.00     0.017 A 
BRANCH  15  18
ATOM     18  O5  UNK     1      40.994   9.535   1.624  1.00  0.00    -0.361 OA
ATOM     19  H10 UNK     1      40.135   9.079   1.607  1.00  0.00     0.217 HD
ENDBRANCH  15  18
ENDBRANCH   5  12
BRANCH   8  20
ATOM     20  O2  UNK     1      40.257  18.871  -3.508  1.00  0.00    -0.360 OA
ATOM     21  H8  UNK     1      39.909  19.755  -3.704  1.00  0.00     0.217 HD
ENDBRANCH   8  20
BRANCH  10  22
ATOM     22  O4  UNK     1      37.954  19.855   0.528  1.00  0.00    -0.361 OA
ATOM     23  H9  UNK     1      38.158  20.757   0.225  1.00  0.00     0.217 HD
ENDBRANCH  10  22
TORSDOF 4
ENDMDL
MODEL 3
REMARK VINA RESULT:      -7.6      2.398      7.133
REMARK  4 active torsions:
REMARK  status: ('A' for Active; 'I' for Inactive)
REMARK    1  A    between atoms: O2_2  and  C7_12 
REMARK    2  A    between atoms: O4_4  and  C9_14 
REMARK    3  A    between atoms: O5_5  and  C15_20 
REMARK    4  A    between atoms: C3_8  and  C4_9 
ROOT
ATOM      1  O1  UNK     1      40.333  17.004  -1.099  1.00  0.00    -0.309 OA
ATOM      2  O3  UNK     1      36.860  14.917  -0.672  1.00  0.00    -0.287 OA
ATOM      3  C1  UNK     1      39.178  14.867  -1.124  1.00  0.00     0.081 A 
ATOM      4  C2  UNK     1      40.330  15.641  -1.255  1.00  0.00     0.095 A 
ATOM      5  C3  UNK     1      39.134  17.638  -0.807  1.00  0.00     0.090 A 
ATOM      6  C5  UNK     1      37.907  15.534  -0.804  1.00  0.00     0.190 A 
ATOM      7  C6  UNK     1      37.962  17.003  -0.649  1.00  0.00     0.094 A 
ATOM      8  C7  UNK     1      39.234  13.482  -1.292  1.00  0.00     0.085 A 
ATOM      9  C8  UNK     1      41.548  15.032  -1.555  1.00  0.00     0.075 A 
ATOM     10  C9  UNK     1      41.610  13.649  -1.725  1.00  0.00     0.071 A 
ATOM     11  C10 UNK     1      40.455  12.875  -1.594  1.00  0.00     0.074 A 
ENDROOT
BRANCH   5  12
ATOM     12  C4  UNK     1      39.252  19.101  -0.655  1.00  0.00    -0.002 A 
ATOM     13  C12 UNK     1      39.978  19.848  -1.586  1.00  0.00     0.017 A 
ATOM     14  C14 UNK     1      40.089  21.231  -1.441  1.00  0.00     0.037 A 
ATOM     15  C15 UNK     1      39.474  21.872  -0.366  1.00  0.00     0.065 A 
ATOM     16  C13 UNK     1      38.749  21.130   0.566  1.00  0.00     0.037 A 
ATOM     17  C11 UNK     1      38.637  19.747   0.422  1.00  0.00     0.017 A 
BRANCH  15  18
ATOM     18  O5  UNK     1      39.584  23.221  -0.225  1.00  0.00    -0.361 OA
ATOM     19  H10 UNK     1      39.377  23.644  -1.077  1.00  0.00     0.217 HD
ENDBRANCH  15  18
ENDBRANCH   5  12
BRANCH   8  20
ATOM     20  O2  UNK     1      38.139  12.682  -1.174  1.00  0.00    -0.360 OA
ATOM     21  H8  UNK     1      37.713  12.815  -0.313  1.00  0.00     0.217 HD
ENDBRANCH   8  20
BRANCH  10  22
ATOM     22  O4  UNK     1      42.798  13.052  -2.018  1.00  0.00    -0.361 OA
ATOM     23  H9  UNK     1      42.642  12.336  -2.658  1.00  0.00     0.217 HD
ENDBRANCH  10  22
TORSDOF 4
ENDMDL
MODEL 4
REMARK VINA RESULT:      -7.1      1.574      6.740
REMARK  4 active torsions:
REMARK  status: ('A' for Active; 'I' for Inactive)
REMARK    1  A    between atoms: O2_2  and  C7_12 
REMARK    2  A    between atoms: O4_4  and  C9_14 
REMARK    3  A    between atoms: O5_5  and  C15_20 
REMARK    4  A    between atoms: C3_8  and  C4_9 
ROOT
ATOM      1  O1  UNK     1      40.154  14.362   0.327  1.00  0.00    -0.309 OA
ATOM      2  O3  UNK     1      41.885  11.840  -2.364  1.00  0.00    -0.287 OA
ATOM      3  C1  UNK     1      41.000  12.146  -0.194  1.00  0.00     0.081 A 
ATOM      4  C2  UNK     1      40.410  13.059   0.676  1.00  0.00     0.095 A 
ATOM      5  C3  UNK     1      40.506  14.786  -0.945  1.00  0.00     0.090 A 
ATOM      6  C5  UNK     1      41.366  12.589  -1.549  1.00  0.00     0.190 A 
ATOM      7  C6  UNK     1      41.072  14.000  -1.874  1.00  0.00     0.094 A 
ATOM      8  C7  UNK     1      41.237  10.831   0.214  1.00  0.00     0.085 A 
ATOM      9  C8  UNK     1      40.052  12.664   1.965  1.00  0.00     0.075 A 
ATOM     10  C9  UNK     1      40.286  11.352   2.378  1.00  0.00     0.071 A 
ATOM     11  C10 UNK     1      40.879  10.438   1.505  1.00  0.00     0.074 A 
ENDROOT
BRANCH   5  12
ATOM     12  C4  UNK     1      40.181  16.200  -1.216  1.00  0.00    -0.002 A 
ATOM     13  C12 UNK     1      40.429  16.748  -2.477  1.00  0.00     0.017 A 
ATOM     14  C14 UNK     1      40.122  18.085  -2.732  1.00  0.00     0.037 A 
ATOM     15  C15 UNK     1      39.566  18.878  -1.728  1.00  0.00     0.065 A 
ATOM     16  C13 UNK     1      39.318  18.334  -0.468  1.00  0.00     0.037 A 
ATOM     17  C11 UNK     1      39.624  16.997  -0.212  1.00  0.00     0.017 A 
BRANCH  15  18
ATOM     18  O5  UNK     1      39.268  20.181  -1.978  1.00  0.00    -0.361 OA
ATOM     19  H10 UNK     1      38.560  20.220  -2.644  1.00  0.00     0.217 HD
ENDBRANCH  15  18
ENDBRANCH   5  12
BRANCH   8  20
ATOM     20  O2  UNK     1      41.810   9.901  -0.598  1.00  0.00    -0.360 OA
ATOM     21  H8  UNK     1      42.691   9.660  -0.270  1.00  0.00     0.217 HD
ENDBRANCH   8  20
BRANCH  10  22
ATOM     22  O4  UNK     1      39.938  10.963   3.635  1.00  0.00    -0.361 OA
ATOM     23  H9  UNK     1      39.909   9.991   3.668  1.00  0.00     0.217 HD
ENDBRANCH  10  22
TORSDOF 4
ENDMDL
MODEL 5
REMARK VINA RESULT:      -7.1      1.574      6.656
REMARK  4 active torsions:
REMARK  status: ('A' for Active; 'I' for Inactive)
REMARK    1  A    between atoms: O2_2  and  C7_12 
REMARK    2  A    between atoms: O4_4  and  C9_14 
REMARK    3  A    between atoms: O5_5  and  C15_20 
REMARK    4  A    between atoms: C3_8  and  C4_9 
ROOT
ATOM      1  O1  UNK     1      40.146  14.361   0.331  1.00  0.00    -0.309 OA
ATOM      2  O3  UNK     1      41.886  11.843  -2.358  1.00  0.00    -0.287 OA
ATOM      3  C1  UNK     1      40.995  12.146  -0.190  1.00  0.00     0.081 A 
ATOM      4  C2  UNK     1      40.402  13.059   0.679  1.00  0.00     0.095 A 
ATOM      5  C3  UNK     1      40.501  14.787  -0.939  1.00  0.00     0.090 A 
ATOM      6  C5  UNK     1      41.365  12.591  -1.543  1.00  0.00     0.190 A 
ATOM      7  C6  UNK     1      41.071  14.002  -1.868  1.00  0.00     0.094 A 
ATOM      8  C7  UNK     1      41.232  10.832   0.218  1.00  0.00     0.085 A 
ATOM      9  C8  UNK     1      40.040  12.662   1.967  1.00  0.00     0.075 A 
ATOM     10  C9  UNK     1      40.275  11.350   2.380  1.00  0.00     0.071 A 
ATOM     11  C10 UNK     1      40.870  10.436   1.507  1.00  0.00     0.074 A 
ENDROOT
BRANCH   5  12
ATOM     12  C4  UNK     1      40.176  16.201  -1.210  1.00  0.00    -0.002 A 
ATOM     13  C12 UNK     1      39.610  16.996  -0.211  1.00  0.00     0.017 A 
ATOM     14  C14 UNK     1      39.302  18.331  -0.468  1.00  0.00     0.037 A 
ATOM     15  C15 UNK     1      39.559  18.878  -1.725  1.00  0.00     0.065 A 
ATOM     16  C13 UNK     1      40.124  18.087  -2.726  1.00  0.00     0.037 A 
ATOM     17  C11 UNK     1      40.432  16.751  -2.470  1.00  0.00     0.017 A 
BRANCH  15  18
ATOM     18  O5  UNK     1      39.258  20.181  -1.976  1.00  0.00    -0.361 OA
ATOM     19  H10 UNK     1      38.517  20.217  -2.605  1.00  0.00     0.217 HD
ENDBRANCH  15  18
ENDBRANCH   5  12
BRANCH   8  20
ATOM     20  O2  UNK     1      41.808   9.903  -0.594  1.00  0.00    -0.360 OA
ATOM     21  H8  UNK     1      42.044   9.109  -0.088  1.00  0.00     0.217 HD
ENDBRANCH   8  20
BRANCH  10  22
ATOM     22  O4  UNK     1      39.923  10.959   3.635  1.00  0.00    -0.361 OA
ATOM     23  H9  UNK     1      39.122  10.409   3.582  1.00  0.00     0.217 HD
ENDBRANCH  10  22
TORSDOF 4
ENDMDL
MODEL 6
REMARK VINA RESULT:      -6.9      1.279      2.804
REMARK  4 active torsions:
REMARK  status: ('A' for Active; 'I' for Inactive)
REMARK    1  A    between atoms: O2_2  and  C7_12 
REMARK    2  A    between atoms: O4_4  and  C9_14 
REMARK    3  A    between atoms: O5_5  and  C15_20 
REMARK    4  A    between atoms: C3_8  and  C4_9 
ROOT
ATOM      1  O1  UNK     1      40.608  15.201  -1.951  1.00  0.00    -0.309 OA
ATOM      2  O3  UNK     1      38.919  18.109   0.350  1.00  0.00    -0.287 OA
ATOM      3  C1  UNK     1      39.884  17.508  -1.722  1.00  0.00     0.081 A 
ATOM      4  C2  UNK     1      40.452  16.468  -2.454  1.00  0.00     0.095 A 
ATOM      5  C3  UNK     1      40.189  14.950  -0.653  1.00  0.00     0.090 A 
ATOM      6  C5  UNK     1      39.429  17.244  -0.348  1.00  0.00     0.190 A 
ATOM      7  C6  UNK     1      39.621  15.866   0.148  1.00  0.00     0.094 A 
ATOM      8  C7  UNK     1      39.749  18.779  -2.286  1.00  0.00     0.085 A 
ATOM      9  C8  UNK     1      40.890  16.692  -3.760  1.00  0.00     0.075 A 
ATOM     10  C9  UNK     1      40.757  17.959  -4.328  1.00  0.00     0.071 A 
ATOM     11  C10 UNK     1      40.188  19.001  -3.592  1.00  0.00     0.074 A 
ENDROOT
BRANCH   5  12
ATOM     12  C4  UNK     1      40.398  13.557  -0.214  1.00  0.00    -0.002 A 
ATOM     13  C12 UNK     1      40.053  13.169   1.082  1.00  0.00     0.017 A 
ATOM     14  C14 UNK     1      40.252  11.852   1.496  1.00  0.00     0.037 A 
ATOM     15  C15 UNK     1      40.796  10.918   0.615  1.00  0.00     0.065 A 
ATOM     16  C13 UNK     1      41.142  11.301  -0.681  1.00  0.00     0.037 A 
ATOM     17  C11 UNK     1      40.944  12.618  -1.095  1.00  0.00     0.017 A 
BRANCH  15  18
ATOM     18  O5  UNK     1      40.990   9.634   1.020  1.00  0.00    -0.361 OA
ATOM     19  H10 UNK     1      41.315   9.111   0.265  1.00  0.00     0.217 HD
ENDBRANCH  15  18
ENDBRANCH   5  12
BRANCH   8  20
ATOM     20  O2  UNK     1      39.200  19.828  -1.612  1.00  0.00    -0.360 OA
ATOM     21  H8  UNK     1      39.895  20.401  -1.254  1.00  0.00     0.217 HD
ENDBRANCH   8  20
BRANCH  10  22
ATOM     22  O4  UNK     1      41.184  18.181  -5.602  1.00  0.00    -0.361 OA
ATOM     23  H9  UNK     1      41.160  19.137  -5.781  1.00  0.00     0.217 HD
ENDBRANCH  10  22
TORSDOF 4
ENDMDL
MODEL 7
REMARK VINA RESULT:      -5.6     10.276     12.171
REMARK  4 active torsions:
REMARK  status: ('A' for Active; 'I' for Inactive)
REMARK    1  A    between atoms: O2_2  and  C7_12 
REMARK    2  A    between atoms: O4_4  and  C9_14 
REMARK    3  A    between atoms: O5_5  and  C15_20 
REMARK    4  A    between atoms: C3_8  and  C4_9 
ROOT
ATOM      1  O1  UNK     1      46.158  11.251  -7.886  1.00  0.00    -0.309 OA
ATOM      2  O3  UNK     1      47.918   7.771  -9.066  1.00  0.00    -0.287 OA
ATOM      3  C1  UNK     1      45.968   9.104  -9.007  1.00  0.00     0.081 A 
ATOM      4  C2  UNK     1      45.429  10.314  -8.575  1.00  0.00     0.095 A 
ATOM      5  C3  UNK     1      47.487  10.975  -7.601  1.00  0.00     0.090 A 
ATOM      6  C5  UNK     1      47.380   8.811  -8.715  1.00  0.00     0.190 A 
ATOM      7  C6  UNK     1      48.120   9.850  -7.969  1.00  0.00     0.094 A 
ATOM      8  C7  UNK     1      45.179   8.188  -9.705  1.00  0.00     0.085 A 
ATOM      9  C8  UNK     1      44.094  10.617  -8.841  1.00  0.00     0.075 A 
ATOM     10  C9  UNK     1      43.301   9.705  -9.538  1.00  0.00     0.071 A 
ATOM     11  C10 UNK     1      43.842   8.492  -9.969  1.00  0.00     0.074 A 
ENDROOT
BRANCH   5  12
ATOM     12  C4  UNK     1      48.177  12.050  -6.863  1.00  0.00    -0.002 A 
ATOM     13  C12 UNK     1      49.162  12.815  -7.493  1.00  0.00     0.017 A 
ATOM     14  C14 UNK     1      49.814  13.830  -6.795  1.00  0.00     0.037 A 
ATOM     15  C15 UNK     1      49.485  14.085  -5.463  1.00  0.00     0.065 A 
ATOM     16  C13 UNK     1      48.504  13.323  -4.830  1.00  0.00     0.037 A 
ATOM     17  C11 UNK     1      47.850  12.307  -5.528  1.00  0.00     0.017 A 
BRANCH  15  18
ATOM     18  O5  UNK     1      50.123  15.075  -4.782  1.00  0.00    -0.361 OA
ATOM     19  H10 UNK     1      51.070  15.050  -5.005  1.00  0.00     0.217 HD
ENDBRANCH  15  18
ENDBRANCH   5  12
BRANCH   8  20
ATOM     20  O2  UNK     1      45.658   6.993 -10.148  1.00  0.00    -0.360 OA
ATOM     21  H8  UNK     1      45.248   6.755 -10.994  1.00  0.00     0.217 HD
ENDBRANCH   8  20
BRANCH  10  22
ATOM     22  O4  UNK     1      41.997   9.998  -9.799  1.00  0.00    -0.361 OA
ATOM     23  H9  UNK     1      41.438   9.273  -9.467  1.00  0.00     0.217 HD
ENDBRANCH  10  22
TORSDOF 4
ENDMDL
