MODEL 1
REMARK VINA RESULT:      -6.0      0.000      0.000
REMARK  4 active torsions:
REMARK  status: ('A' for Active; 'I' for Inactive)
REMARK    1  A    between atoms: O2_2  and  C7_12 
REMARK    2  A    between atoms: O4_4  and  C9_14 
REMARK    3  A    between atoms: O5_5  and  C15_20 
REMARK    4  A    between atoms: C3_8  and  C4_9 
ROOT
ATOM      1  O1  UNK     1      44.632   1.758   7.496  1.00  0.00    -0.309 OA
ATOM      2  O3  UNK     1      46.444   0.391  10.879  1.00  0.00    -0.287 OA
ATOM      3  C1  UNK     1      46.672   1.443   8.775  1.00  0.00     0.081 A 
ATOM      4  C2  UNK     1      45.989   1.889   7.646  1.00  0.00     0.095 A 
ATOM      5  C3  UNK     1      43.911   1.146   8.511  1.00  0.00     0.090 A 
ATOM      6  C5  UNK     1      45.910   0.803   9.859  1.00  0.00     0.190 A 
ATOM      7  C6  UNK     1      44.453   0.683   9.648  1.00  0.00     0.094 A 
ATOM      8  C7  UNK     1      48.056   1.604   8.875  1.00  0.00     0.085 A 
ATOM      9  C8  UNK     1      46.688   2.501   6.605  1.00  0.00     0.075 A 
ATOM     10  C9  UNK     1      48.070   2.664   6.699  1.00  0.00     0.071 A 
ATOM     11  C10 UNK     1      48.753   2.216   7.832  1.00  0.00     0.074 A 
ENDROOT
BRANCH   5  12
ATOM     12  C4  UNK     1      42.461   1.062   8.249  1.00  0.00    -0.002 A 
ATOM     13  C12 UNK     1      41.794   2.127   7.640  1.00  0.00     0.017 A 
ATOM     14  C14 UNK     1      40.424   2.047   7.395  1.00  0.00     0.037 A 
ATOM     15  C15 UNK     1      39.715   0.902   7.757  1.00  0.00     0.065 A 
ATOM     16  C13 UNK     1      40.377  -0.164   8.366  1.00  0.00     0.037 A 
ATOM     17  C11 UNK     1      41.748  -0.084   8.612  1.00  0.00     0.017 A 
BRANCH  15  18
ATOM     18  O5  UNK     1      38.378   0.825   7.518  1.00  0.00    -0.361 OA
ATOM     19  H10 UNK     1      38.129   1.527   6.892  1.00  0.00     0.217 HD
ENDBRANCH  15  18
ENDBRANCH   5  12
BRANCH   8  20
ATOM     20  O2  UNK     1      48.768   1.186   9.957  1.00  0.00    -0.360 OA
ATOM     21  H8  UNK     1      48.709   1.837  10.674  1.00  0.00     0.217 HD
ENDBRANCH   8  20
BRANCH  10  22
ATOM     22  O4  UNK     1      48.755   3.261   5.685  1.00  0.00    -0.361 OA
ATOM     23  H9  UNK     1      49.307   3.974   6.053  1.00  0.00     0.217 HD
ENDBRANCH  10  22
TORSDOF 4
ENDMDL
MODEL 2
REMARK VINA RESULT:      -6.0      1.720      6.870
REMARK  4 active torsions:
REMARK  status: ('A' for Active; 'I' for Inactive)
REMARK    1  A    between atoms: O2_2  and  C7_12 
REMARK    2  A    between atoms: O4_4  and  C9_14 
REMARK    3  A    between atoms: O5_5  and  C15_20 
REMARK    4  A    between atoms: C3_8  and  C4_9 
ROOT
ATOM      1  O1  UNK     1      42.681   1.163   7.958  1.00  0.00    -0.309 OA
ATOM      2  O3  UNK     1      41.322  -1.733  10.481  1.00  0.00    -0.287 OA
ATOM      3  C1  UNK     1      40.812  -0.119   8.833  1.00  0.00     0.081 A 
ATOM      4  C2  UNK     1      41.343   0.858   7.994  1.00  0.00     0.095 A 
ATOM      5  C3  UNK     1      43.538   0.472   8.802  1.00  0.00     0.090 A 
ATOM      6  C5  UNK     1      41.719  -0.861   9.722  1.00  0.00     0.190 A 
ATOM      7  C6  UNK     1      43.148  -0.494   9.649  1.00  0.00     0.094 A 
ATOM      8  C7  UNK     1      39.442  -0.389   8.826  1.00  0.00     0.085 A 
ATOM      9  C8  UNK     1      40.505   1.574   7.139  1.00  0.00     0.075 A 
ATOM     10  C9  UNK     1      39.135   1.310   7.128  1.00  0.00     0.071 A 
ATOM     11  C10 UNK     1      38.604   0.330   7.971  1.00  0.00     0.074 A 
ENDROOT
BRANCH   5  12
ATOM     12  C4  UNK     1      44.953   0.875   8.679  1.00  0.00    -0.002 A 
ATOM     13  C12 UNK     1      45.367   1.665   7.605  1.00  0.00     0.017 A 
ATOM     14  C14 UNK     1      46.704   2.044   7.489  1.00  0.00     0.037 A 
ATOM     15  C15 UNK     1      47.632   1.634   8.447  1.00  0.00     0.065 A 
ATOM     16  C13 UNK     1      47.222   0.844   9.521  1.00  0.00     0.037 A 
ATOM     17  C11 UNK     1      45.884   0.465   9.637  1.00  0.00     0.017 A 
BRANCH  15  18
ATOM     18  O5  UNK     1      48.936   2.003   8.333  1.00  0.00    -0.361 OA
ATOM     19  H10 UNK     1      49.216   1.888   7.408  1.00  0.00     0.217 HD
ENDBRANCH  15  18
ENDBRANCH   5  12
BRANCH   8  20
ATOM     20  O2  UNK     1      38.874  -1.333   9.625  1.00  0.00    -0.360 OA
ATOM     21  H8  UNK     1      39.008  -1.112  10.560  1.00  0.00     0.217 HD
ENDBRANCH   8  20
BRANCH  10  22
ATOM     22  O4  UNK     1      38.314   2.007   6.296  1.00  0.00    -0.361 OA
ATOM     23  H9  UNK     1      38.372   2.953   6.515  1.00  0.00     0.217 HD
ENDBRANCH  10  22
TORSDOF 4
ENDMDL
MODEL 3
REMARK VINA RESULT:      -6.0      0.014      1.080
REMARK  4 active torsions:
REMARK  status: ('A' for Active; 'I' for Inactive)
REMARK    1  A    between atoms: O2_2  and  C7_12 
REMARK    2  A    between atoms: O4_4  and  C9_14 
REMARK    3  A    between atoms: O5_5  and  C15_20 
REMARK    4  A    between atoms: C3_8  and  C4_9 
ROOT
ATOM      1  O1  UNK     1      44.639   1.763   7.501  1.00  0.00    -0.309 OA
ATOM      2  O3  UNK     1      46.444   0.405  10.892  1.00  0.00    -0.287 OA
ATOM      3  C1  UNK     1      46.677   1.450   8.786  1.00  0.00     0.081 A 
ATOM      4  C2  UNK     1      45.996   1.893   7.653  1.00  0.00     0.095 A 
ATOM      5  C3  UNK     1      43.916   1.156   8.517  1.00  0.00     0.090 A 
ATOM      6  C5  UNK     1      45.912   0.814   9.870  1.00  0.00     0.190 A 
ATOM      7  C6  UNK     1      44.455   0.695   9.657  1.00  0.00     0.094 A 
ATOM      8  C7  UNK     1      48.060   1.610   8.887  1.00  0.00     0.085 A 
ATOM      9  C8  UNK     1      46.697   2.502   6.612  1.00  0.00     0.075 A 
ATOM     10  C9  UNK     1      48.080   2.664   6.708  1.00  0.00     0.071 A 
ATOM     11  C10 UNK     1      48.760   2.218   7.843  1.00  0.00     0.074 A 
ENDROOT
BRANCH   5  12
ATOM     12  C4  UNK     1      42.466   1.072   8.254  1.00  0.00    -0.002 A 
ATOM     13  C12 UNK     1      41.751  -0.071   8.617  1.00  0.00     0.017 A 
ATOM     14  C14 UNK     1      40.381  -0.149   8.367  1.00  0.00     0.037 A 
ATOM     15  C15 UNK     1      39.721   0.915   7.753  1.00  0.00     0.065 A 
ATOM     16  C13 UNK     1      40.432   2.058   7.388  1.00  0.00     0.037 A 
ATOM     17  C11 UNK     1      41.802   2.137   7.638  1.00  0.00     0.017 A 
BRANCH  15  18
ATOM     18  O5  UNK     1      38.385   0.837   7.509  1.00  0.00    -0.361 OA
ATOM     19  H10 UNK     1      37.944   1.597   7.927  1.00  0.00     0.217 HD
ENDBRANCH  15  18
ENDBRANCH   5  12
BRANCH   8  20
ATOM     20  O2  UNK     1      48.771   1.195   9.972  1.00  0.00    -0.360 OA
ATOM     21  H8  UNK     1      48.174   0.875  10.666  1.00  0.00     0.217 HD
ENDBRANCH   8  20
BRANCH  10  22
ATOM     22  O4  UNK     1      48.767   3.257   5.693  1.00  0.00    -0.361 OA
ATOM     23  H9  UNK     1      49.489   2.667   5.414  1.00  0.00     0.217 HD
ENDBRANCH  10  22
TORSDOF 4
ENDMDL
MODEL 4
REMARK VINA RESULT:      -6.0      1.721      6.933
REMARK  4 active torsions:
REMARK  status: ('A' for Active; 'I' for Inactive)
REMARK    1  A    between atoms: O2_2  and  C7_12 
REMARK    2  A    between atoms: O4_4  and  C9_14 
REMARK    3  A    between atoms: O5_5  and  C15_20 
REMARK    4  A    between atoms: C3_8  and  C4_9 
ROOT
ATOM      1  O1  UNK     1      42.683   1.170   7.950  1.00  0.00    -0.309 OA
ATOM      2  O3  UNK     1      41.334  -1.706  10.501  1.00  0.00    -0.287 OA
ATOM      3  C1  UNK     1      40.817  -0.105   8.842  1.00  0.00     0.081 A 
ATOM      4  C2  UNK     1      41.345   0.865   7.993  1.00  0.00     0.095 A 
ATOM      5  C3  UNK     1      43.543   0.485   8.795  1.00  0.00     0.090 A 
ATOM      6  C5  UNK     1      41.728  -0.840   9.733  1.00  0.00     0.190 A 
ATOM      7  C6  UNK     1      43.157  -0.475   9.651  1.00  0.00     0.094 A 
ATOM      8  C7  UNK     1      39.447  -0.374   8.843  1.00  0.00     0.085 A 
ATOM      9  C8  UNK     1      40.504   1.575   7.137  1.00  0.00     0.075 A 
ATOM     10  C9  UNK     1      39.134   1.311   7.134  1.00  0.00     0.071 A 
ATOM     11  C10 UNK     1      38.606   0.339   7.986  1.00  0.00     0.074 A 
ENDROOT
BRANCH   5  12
ATOM     12  C4  UNK     1      44.958   0.886   8.663  1.00  0.00    -0.002 A 
ATOM     13  C12 UNK     1      45.892   0.489   9.622  1.00  0.00     0.017 A 
ATOM     14  C14 UNK     1      47.229   0.868   9.496  1.00  0.00     0.037 A 
ATOM     15  C15 UNK     1      47.635   1.647   8.412  1.00  0.00     0.065 A 
ATOM     16  C13 UNK     1      46.704   2.046   7.454  1.00  0.00     0.037 A 
ATOM     17  C11 UNK     1      45.367   1.666   7.578  1.00  0.00     0.017 A 
BRANCH  15  18
ATOM     18  O5  UNK     1      48.938   2.017   8.292  1.00  0.00    -0.361 OA
ATOM     19  H10 UNK     1      49.033   2.938   8.591  1.00  0.00     0.217 HD
ENDBRANCH  15  18
ENDBRANCH   5  12
BRANCH   8  20
ATOM     20  O2  UNK     1      38.883  -1.312   9.653  1.00  0.00    -0.360 OA
ATOM     21  H8  UNK     1      39.533  -1.645  10.291  1.00  0.00     0.217 HD
ENDBRANCH   8  20
BRANCH  10  22
ATOM     22  O4  UNK     1      38.309   2.002   6.299  1.00  0.00    -0.361 OA
ATOM     23  H9  UNK     1      38.541   2.946   6.337  1.00  0.00     0.217 HD
ENDBRANCH  10  22
TORSDOF 4
ENDMDL
MODEL 5
REMARK VINA RESULT:      -5.9      1.916      7.217
REMARK  4 active torsions:
REMARK  status: ('A' for Active; 'I' for Inactive)
REMARK    1  A    between atoms: O2_2  and  C7_12 
REMARK    2  A    between atoms: O4_4  and  C9_14 
REMARK    3  A    between atoms: O5_5  and  C15_20 
REMARK    4  A    between atoms: C3_8  and  C4_9 
ROOT
ATOM      1  O1  UNK     1      43.500  -0.113   8.950  1.00  0.00    -0.309 OA
ATOM      2  O3  UNK     1      40.451   2.064   7.348  1.00  0.00    -0.287 OA
ATOM      3  C1  UNK     1      41.116   0.156   8.573  1.00  0.00     0.081 A 
ATOM      4  C2  UNK     1      42.204  -0.539   9.097  1.00  0.00     0.095 A 
ATOM      5  C3  UNK     1      43.735   1.057   8.243  1.00  0.00     0.090 A 
ATOM      6  C5  UNK     1      41.359   1.403   7.831  1.00  0.00     0.190 A 
ATOM      7  C6  UNK     1      42.771   1.817   7.699  1.00  0.00     0.094 A 
ATOM      8  C7  UNK     1      39.817  -0.324   8.754  1.00  0.00     0.085 A 
ATOM      9  C8  UNK     1      42.000  -1.722   9.807  1.00  0.00     0.075 A 
ATOM     10  C9  UNK     1      40.705  -2.207   9.990  1.00  0.00     0.071 A 
ATOM     11  C10 UNK     1      39.615  -1.509   9.464  1.00  0.00     0.074 A 
ENDROOT
BRANCH   5  12
ATOM     12  C4  UNK     1      45.161   1.426   8.151  1.00  0.00    -0.002 A 
ATOM     13  C12 UNK     1      46.058   1.013   9.138  1.00  0.00     0.017 A 
ATOM     14  C14 UNK     1      47.406   1.362   9.050  1.00  0.00     0.037 A 
ATOM     15  C15 UNK     1      47.860   2.126   7.975  1.00  0.00     0.065 A 
ATOM     16  C13 UNK     1      46.967   2.542   6.989  1.00  0.00     0.037 A 
ATOM     17  C11 UNK     1      45.619   2.192   7.075  1.00  0.00     0.017 A 
BRANCH  15  18
ATOM     18  O5  UNK     1      49.175   2.468   7.891  1.00  0.00    -0.361 OA
ATOM     19  H10 UNK     1      49.273   3.182   7.238  1.00  0.00     0.217 HD
ENDBRANCH  15  18
ENDBRANCH   5  12
BRANCH   8  20
ATOM     20  O2  UNK     1      38.721   0.317   8.263  1.00  0.00    -0.360 OA
ATOM     21  H8  UNK     1      38.103   0.531   8.980  1.00  0.00     0.217 HD
ENDBRANCH   8  20
BRANCH  10  22
ATOM     22  O4  UNK     1      40.502  -3.361  10.682  1.00  0.00    -0.361 OA
ATOM     23  H9  UNK     1      40.635  -3.189  11.630  1.00  0.00     0.217 HD
ENDBRANCH  10  22
TORSDOF 4
ENDMDL
MODEL 6
REMARK VINA RESULT:      -5.9      1.875      7.625
REMARK  4 active torsions:
REMARK  status: ('A' for Active; 'I' for Inactive)
REMARK    1  A    between atoms: O2_2  and  C7_12 
REMARK    2  A    between atoms: O4_4  and  C9_14 
REMARK    3  A    between atoms: O5_5  and  C15_20 
REMARK    4  A    between atoms: C3_8  and  C4_9 
ROOT
ATOM      1  O1  UNK     1      41.927  -0.451   8.485  1.00  0.00    -0.309 OA
ATOM      2  O3  UNK     1      39.276   2.313   7.095  1.00  0.00    -0.287 OA
ATOM      3  C1  UNK     1      39.637   0.129   7.922  1.00  0.00     0.081 A 
ATOM      4  C2  UNK     1      40.595  -0.767   8.389  1.00  0.00     0.095 A 
ATOM      5  C3  UNK     1      42.335   0.815   8.091  1.00  0.00     0.090 A 
ATOM      6  C5  UNK     1      40.064   1.476   7.512  1.00  0.00     0.190 A 
ATOM      7  C6  UNK     1      41.508   1.767   7.632  1.00  0.00     0.094 A 
ATOM      8  C7  UNK     1      38.294  -0.247   7.846  1.00  0.00     0.085 A 
ATOM      9  C8  UNK     1      40.217  -2.050   8.786  1.00  0.00     0.075 A 
ATOM     10  C9  UNK     1      38.876  -2.431   8.713  1.00  0.00     0.071 A 
ATOM     11  C10 UNK     1      37.917  -1.531   8.243  1.00  0.00     0.074 A 
ENDROOT
BRANCH   5  12
ATOM     12  C4  UNK     1      43.785   1.051   8.241  1.00  0.00    -0.002 A 
ATOM     13  C12 UNK     1      44.481   1.781   7.275  1.00  0.00     0.017 A 
ATOM     14  C14 UNK     1      45.850   2.003   7.416  1.00  0.00     0.037 A 
ATOM     15  C15 UNK     1      46.529   1.496   8.524  1.00  0.00     0.065 A 
ATOM     16  C13 UNK     1      45.837   0.765   9.490  1.00  0.00     0.037 A 
ATOM     17  C11 UNK     1      44.467   0.543   9.350  1.00  0.00     0.017 A 
BRANCH  15  18
ATOM     18  O5  UNK     1      47.865   1.712   8.661  1.00  0.00    -0.361 OA
ATOM     19  H10 UNK     1      48.347   0.987   8.227  1.00  0.00     0.217 HD
ENDBRANCH  15  18
ENDBRANCH   5  12
BRANCH   8  20
ATOM     20  O2  UNK     1      37.320   0.592   7.397  1.00  0.00    -0.360 OA
ATOM     21  H8  UNK     1      37.505   0.870   6.487  1.00  0.00     0.217 HD
ENDBRANCH   8  20
BRANCH  10  22
ATOM     22  O4  UNK     1      38.503  -3.682   9.099  1.00  0.00    -0.361 OA
ATOM     23  H9  UNK     1      38.606  -4.289   8.346  1.00  0.00     0.217 HD
ENDBRANCH  10  22
TORSDOF 4
ENDMDL
MODEL 7
REMARK VINA RESULT:      -5.7      3.664      6.626
REMARK  4 active torsions:
REMARK  status: ('A' for Active; 'I' for Inactive)
REMARK    1  A    between atoms: O2_2  and  C7_12 
REMARK    2  A    between atoms: O4_4  and  C9_14 
REMARK    3  A    between atoms: O5_5  and  C15_20 
REMARK    4  A    between atoms: C3_8  and  C4_9 
ROOT
ATOM      1  O1  UNK     1      40.985   2.113   8.694  1.00  0.00    -0.309 OA
ATOM      2  O3  UNK     1      43.472  -0.967   9.657  1.00  0.00    -0.287 OA
ATOM      3  C1  UNK     1      41.382  -0.281   8.792  1.00  0.00     0.081 A 
ATOM      4  C2  UNK     1      40.583   0.817   8.485  1.00  0.00     0.095 A 
ATOM      5  C3  UNK     1      42.238   2.335   9.244  1.00  0.00     0.090 A 
ATOM      6  C5  UNK     1      42.717  -0.050   9.366  1.00  0.00     0.190 A 
ATOM      7  C6  UNK     1      43.101   1.361   9.575  1.00  0.00     0.094 A 
ATOM      8  C7  UNK     1      40.922  -1.579   8.556  1.00  0.00     0.085 A 
ATOM      9  C8  UNK     1      39.314   0.626   7.937  1.00  0.00     0.075 A 
ATOM     10  C9  UNK     1      38.850  -0.668   7.700  1.00  0.00     0.071 A 
ATOM     11  C10 UNK     1      39.652  -1.769   8.009  1.00  0.00     0.074 A 
ENDROOT
BRANCH   5  12
ATOM     12  C4  UNK     1      42.571   3.762   9.422  1.00  0.00    -0.002 A 
ATOM     13  C12 UNK     1      41.605   4.654   9.892  1.00  0.00     0.017 A 
ATOM     14  C14 UNK     1      41.920   6.003  10.059  1.00  0.00     0.037 A 
ATOM     15  C15 UNK     1      43.201   6.464   9.756  1.00  0.00     0.065 A 
ATOM     16  C13 UNK     1      44.168   5.575   9.285  1.00  0.00     0.037 A 
ATOM     17  C11 UNK     1      43.854   4.226   9.118  1.00  0.00     0.017 A 
BRANCH  15  18
ATOM     18  O5  UNK     1      43.507   7.779   9.918  1.00  0.00    -0.361 OA
ATOM     19  H10 UNK     1      44.049   7.880  10.720  1.00  0.00     0.217 HD
ENDBRANCH  15  18
ENDBRANCH   5  12
BRANCH   8  20
ATOM     20  O2  UNK     1      41.665  -2.685   8.838  1.00  0.00    -0.360 OA
ATOM     21  H8  UNK     1      42.592  -2.442   8.986  1.00  0.00     0.217 HD
ENDBRANCH   8  20
BRANCH  10  22
ATOM     22  O4  UNK     1      37.612  -0.859   7.166  1.00  0.00    -0.361 OA
ATOM     23  H9  UNK     1      36.942  -0.651   7.840  1.00  0.00     0.217 HD
ENDBRANCH  10  22
TORSDOF 4
ENDMDL
MODEL 8
REMARK VINA RESULT:      -5.7      3.667      6.628
REMARK  4 active torsions:
REMARK  status: ('A' for Active; 'I' for Inactive)
REMARK    1  A    between atoms: O2_2  and  C7_12 
REMARK    2  A    between atoms: O4_4  and  C9_14 
REMARK    3  A    between atoms: O5_5  and  C15_20 
REMARK    4  A    between atoms: C3_8  and  C4_9 
ROOT
ATOM      1  O1  UNK     1      40.983   2.113   8.698  1.00  0.00    -0.309 OA
ATOM      2  O3  UNK     1      43.471  -0.966   9.659  1.00  0.00    -0.287 OA
ATOM      3  C1  UNK     1      41.382  -0.281   8.794  1.00  0.00     0.081 A 
ATOM      4  C2  UNK     1      40.582   0.818   8.487  1.00  0.00     0.095 A 
ATOM      5  C3  UNK     1      42.236   2.336   9.248  1.00  0.00     0.090 A 
ATOM      6  C5  UNK     1      42.716  -0.049   9.369  1.00  0.00     0.190 A 
ATOM      7  C6  UNK     1      43.100   1.362   9.578  1.00  0.00     0.094 A 
ATOM      8  C7  UNK     1      40.923  -1.578   8.557  1.00  0.00     0.085 A 
ATOM      9  C8  UNK     1      39.314   0.626   7.939  1.00  0.00     0.075 A 
ATOM     10  C9  UNK     1      38.850  -0.668   7.700  1.00  0.00     0.071 A 
ATOM     11  C10 UNK     1      39.653  -1.768   8.009  1.00  0.00     0.074 A 
ENDROOT
BRANCH   5  12
ATOM     12  C4  UNK     1      42.568   3.763   9.427  1.00  0.00    -0.002 A 
ATOM     13  C12 UNK     1      43.852   4.227   9.134  1.00  0.00     0.017 A 
ATOM     14  C14 UNK     1      44.165   5.576   9.304  1.00  0.00     0.037 A 
ATOM     15  C15 UNK     1      43.195   6.465   9.767  1.00  0.00     0.065 A 
ATOM     16  C13 UNK     1      41.912   6.004  10.061  1.00  0.00     0.037 A 
ATOM     17  C11 UNK     1      41.598   4.656   9.891  1.00  0.00     0.017 A 
BRANCH  15  18
ATOM     18  O5  UNK     1      43.501   7.780   9.933  1.00  0.00    -0.361 OA
ATOM     19  H10 UNK     1      44.085   8.061   9.207  1.00  0.00     0.217 HD
ENDBRANCH  15  18
ENDBRANCH   5  12
BRANCH   8  20
ATOM     20  O2  UNK     1      41.666  -2.684   8.839  1.00  0.00    -0.360 OA
ATOM     21  H8  UNK     1      42.455  -2.442   9.347  1.00  0.00     0.217 HD
ENDBRANCH   8  20
BRANCH  10  22
ATOM     22  O4  UNK     1      37.612  -0.859   7.166  1.00  0.00    -0.361 OA
ATOM     23  H9  UNK     1      37.639  -0.636   6.219  1.00  0.00     0.217 HD
ENDBRANCH  10  22
TORSDOF 4
ENDMDL
MODEL 9
REMARK VINA RESULT:      -5.7      3.625      7.032
REMARK  4 active torsions:
REMARK  status: ('A' for Active; 'I' for Inactive)
REMARK    1  A    between atoms: O2_2  and  C7_12 
REMARK    2  A    between atoms: O4_4  and  C9_14 
REMARK    3  A    between atoms: O5_5  and  C15_20 
REMARK    4  A    between atoms: C3_8  and  C4_9 
ROOT
ATOM      1  O1  UNK     1      42.124   1.089   9.322  1.00  0.00    -0.309 OA
ATOM      2  O3  UNK     1      38.976   1.237   6.739  1.00  0.00    -0.287 OA
ATOM      3  C1  UNK     1      40.356  -0.079   8.135  1.00  0.00     0.081 A 
ATOM      4  C2  UNK     1      41.439  -0.059   9.011  1.00  0.00     0.095 A 
ATOM      5  C3  UNK     1      41.722   2.278   8.731  1.00  0.00     0.090 A 
ATOM      6  C5  UNK     1      39.920   1.181   7.514  1.00  0.00     0.190 A 
ATOM      7  C6  UNK     1      40.691   2.388   7.879  1.00  0.00     0.094 A 
ATOM      8  C7  UNK     1      39.696  -1.278   7.855  1.00  0.00     0.085 A 
ATOM      9  C8  UNK     1      41.871  -1.240   9.614  1.00  0.00     0.075 A 
ATOM     10  C9  UNK     1      41.215  -2.440   9.338  1.00  0.00     0.071 A 
ATOM     11  C10 UNK     1      40.130  -2.459   8.460  1.00  0.00     0.074 A 
ENDROOT
BRANCH   5  12
ATOM     12  C4  UNK     1      42.522   3.450   9.139  1.00  0.00    -0.002 A 
ATOM     13  C12 UNK     1      41.957   4.437   9.950  1.00  0.00     0.017 A 
ATOM     14  C14 UNK     1      42.713   5.544  10.335  1.00  0.00     0.037 A 
ATOM     15  C15 UNK     1      44.036   5.669   9.910  1.00  0.00     0.065 A 
ATOM     16  C13 UNK     1      44.603   4.685   9.099  1.00  0.00     0.037 A 
ATOM     17  C11 UNK     1      43.848   3.577   8.715  1.00  0.00     0.017 A 
BRANCH  15  18
ATOM     18  O5  UNK     1      44.772   6.750  10.285  1.00  0.00    -0.361 OA
ATOM     19  H10 UNK     1      44.716   7.426   9.587  1.00  0.00     0.217 HD
ENDBRANCH  15  18
ENDBRANCH   5  12
BRANCH   8  20
ATOM     20  O2  UNK     1      38.632  -1.350   7.008  1.00  0.00    -0.360 OA
ATOM     21  H8  UNK     1      38.846  -0.933   6.159  1.00  0.00     0.217 HD
ENDBRANCH   8  20
BRANCH  10  22
ATOM     22  O4  UNK     1      41.634  -3.595   9.926  1.00  0.00    -0.361 OA
ATOM     23  H9  UNK     1      42.031  -3.384  10.788  1.00  0.00     0.217 HD
ENDBRANCH  10  22
TORSDOF 4
ENDMDL
MODEL 10
REMARK VINA RESULT:      -5.7      1.984      2.510
REMARK  4 active torsions:
REMARK  status: ('A' for Active; 'I' for Inactive)
REMARK    1  A    between atoms: O2_2  and  C7_12 
REMARK    2  A    between atoms: O4_4  and  C9_14 
REMARK    3  A    between atoms: O5_5  and  C15_20 
REMARK    4  A    between atoms: C3_8  and  C4_9 
ROOT
ATOM      1  O1  UNK     1      43.440   1.748   7.578  1.00  0.00    -0.309 OA
ATOM      2  O3  UNK     1      43.733   4.945  10.086  1.00  0.00    -0.287 OA
ATOM      3  C1  UNK     1      44.823   3.459   8.607  1.00  0.00     0.081 A 
ATOM      4  C2  UNK     1      44.652   2.364   7.763  1.00  0.00     0.095 A 
ATOM      5  C3  UNK     1      42.340   2.234   8.268  1.00  0.00     0.090 A 
ATOM      6  C5  UNK     1      43.656   3.985   9.333  1.00  0.00     0.190 A 
ATOM      7  C6  UNK     1      42.375   3.286   9.101  1.00  0.00     0.094 A 
ATOM      8  C7  UNK     1      46.080   4.048   8.756  1.00  0.00     0.085 A 
ATOM      9  C8  UNK     1      45.742   1.847   7.062  1.00  0.00     0.075 A 
ATOM     10  C9  UNK     1      47.001   2.431   7.208  1.00  0.00     0.071 A 
ATOM     11  C10 UNK     1      47.170   3.529   8.054  1.00  0.00     0.074 A 
ENDROOT
BRANCH   5  12
ATOM     12  C4  UNK     1      41.088   1.503   7.991  1.00  0.00    -0.002 A 
ATOM     13  C12 UNK     1      40.036   2.138   7.326  1.00  0.00     0.017 A 
ATOM     14  C14 UNK     1      38.853   1.447   7.066  1.00  0.00     0.037 A 
ATOM     15  C15 UNK     1      38.717   0.119   7.469  1.00  0.00     0.065 A 
ATOM     16  C13 UNK     1      39.765  -0.518   8.134  1.00  0.00     0.037 A 
ATOM     17  C11 UNK     1      40.949   0.172   8.395  1.00  0.00     0.017 A 
BRANCH  15  18
ATOM     18  O5  UNK     1      37.562  -0.555   7.216  1.00  0.00    -0.361 OA
ATOM     19  H10 UNK     1      37.233  -0.295   6.338  1.00  0.00     0.217 HD
ENDBRANCH  15  18
ENDBRANCH   5  12
BRANCH   8  20
ATOM     20  O2  UNK     1      46.299   5.119   9.567  1.00  0.00    -0.360 OA
ATOM     21  H8  UNK     1      45.478   5.381  10.012  1.00  0.00     0.217 HD
ENDBRANCH   8  20
BRANCH  10  22
ATOM     22  O4  UNK     1      48.066   1.929   6.525  1.00  0.00    -0.361 OA
ATOM     23  H9  UNK     1      48.770   2.601   6.500  1.00  0.00     0.217 HD
ENDBRANCH  10  22
TORSDOF 4
ENDMDL
MODEL 11
REMARK VINA RESULT:      -5.7      2.362      7.257
REMARK  4 active torsions:
REMARK  status: ('A' for Active; 'I' for Inactive)
REMARK    1  A    between atoms: O2_2  and  C7_12 
REMARK    2  A    between atoms: O4_4  and  C9_14 
REMARK    3  A    between atoms: O5_5  and  C15_20 
REMARK    4  A    between atoms: C3_8  and  C4_9 
ROOT
ATOM      1  O1  UNK     1      41.596   0.388   8.212  1.00  0.00    -0.309 OA
ATOM      2  O3  UNK     1      41.547  -2.720  10.846  1.00  0.00    -0.287 OA
ATOM      3  C1  UNK     1      40.328  -1.322   9.381  1.00  0.00     0.081 A 
ATOM      4  C2  UNK     1      40.416  -0.254   8.491  1.00  0.00     0.095 A 
ATOM      5  C3  UNK     1      42.749  -0.041   8.853  1.00  0.00     0.090 A 
ATOM      6  C5  UNK     1      41.551  -1.787  10.055  1.00  0.00     0.190 A 
ATOM      7  C6  UNK     1      42.794  -1.062   9.724  1.00  0.00     0.094 A 
ATOM      8  C7  UNK     1      39.100  -1.940   9.626  1.00  0.00     0.085 A 
ATOM      9  C8  UNK     1      39.273   0.205   7.837  1.00  0.00     0.075 A 
ATOM     10  C9  UNK     1      38.043  -0.408   8.078  1.00  0.00     0.071 A 
ATOM     11  C10 UNK     1      37.956  -1.478   8.972  1.00  0.00     0.074 A 
ENDROOT
BRANCH   5  12
ATOM     12  C4  UNK     1      43.960   0.714   8.477  1.00  0.00    -0.002 A 
ATOM     13  C12 UNK     1      45.087   0.691   9.302  1.00  0.00     0.017 A 
ATOM     14  C14 UNK     1      46.230   1.405   8.947  1.00  0.00     0.037 A 
ATOM     15  C15 UNK     1      46.252   2.145   7.764  1.00  0.00     0.065 A 
ATOM     16  C13 UNK     1      45.129   2.171   6.938  1.00  0.00     0.037 A 
ATOM     17  C11 UNK     1      43.985   1.457   7.293  1.00  0.00     0.017 A 
BRANCH  15  18
ATOM     18  O5  UNK     1      47.368   2.843   7.419  1.00  0.00    -0.361 OA
ATOM     19  H10 UNK     1      47.318   3.069   6.474  1.00  0.00     0.217 HD
ENDBRANCH  15  18
ENDBRANCH   5  12
BRANCH   8  20
ATOM     20  O2  UNK     1      38.962  -2.986  10.486  1.00  0.00    -0.360 OA
ATOM     21  H8  UNK     1      38.092  -2.961  10.914  1.00  0.00     0.217 HD
ENDBRANCH   8  20
BRANCH  10  22
ATOM     22  O4  UNK     1      36.924   0.037   7.442  1.00  0.00    -0.361 OA
ATOM     23  H9  UNK     1      36.901   1.009   7.487  1.00  0.00     0.217 HD
ENDBRANCH  10  22
TORSDOF 4
ENDMDL
MODEL 12
REMARK VINA RESULT:      -5.7      7.562     10.766
REMARK  4 active torsions:
REMARK  status: ('A' for Active; 'I' for Inactive)
REMARK    1  A    between atoms: O2_2  and  C7_12 
REMARK    2  A    between atoms: O4_4  and  C9_14 
REMARK    3  A    between atoms: O5_5  and  C15_20 
REMARK    4  A    between atoms: C3_8  and  C4_9 
ROOT
ATOM      1  O1  UNK     1      37.996  -4.960   5.600  1.00  0.00    -0.309 OA
ATOM      2  O3  UNK     1      37.349  -6.087   9.461  1.00  0.00    -0.287 OA
ATOM      3  C1  UNK     1      37.912  -4.358   7.951  1.00  0.00     0.081 A 
ATOM      4  C2  UNK     1      38.118  -4.040   6.611  1.00  0.00     0.095 A 
ATOM      5  C3  UNK     1      37.662  -6.264   5.930  1.00  0.00     0.090 A 
ATOM      6  C5  UNK     1      37.547  -5.739   8.306  1.00  0.00     0.190 A 
ATOM      7  C6  UNK     1      37.431  -6.691   7.182  1.00  0.00     0.094 A 
ATOM      8  C7  UNK     1      38.048  -3.381   8.939  1.00  0.00     0.085 A 
ATOM      9  C8  UNK     1      38.462  -2.738   6.248  1.00  0.00     0.075 A 
ATOM     10  C9  UNK     1      38.600  -1.757   7.231  1.00  0.00     0.071 A 
ATOM     11  C10 UNK     1      38.394  -2.078   8.574  1.00  0.00     0.074 A 
ENDROOT
BRANCH   5  12
ATOM     12  C4  UNK     1      37.552  -7.168   4.768  1.00  0.00    -0.002 A 
ATOM     13  C12 UNK     1      38.533  -8.135   4.536  1.00  0.00     0.017 A 
ATOM     14  C14 UNK     1      38.429  -8.988   3.438  1.00  0.00     0.037 A 
ATOM     15  C15 UNK     1      37.344  -8.877   2.567  1.00  0.00     0.065 A 
ATOM     16  C13 UNK     1      36.364  -7.912   2.796  1.00  0.00     0.037 A 
ATOM     17  C11 UNK     1      36.467  -7.059   3.894  1.00  0.00     0.017 A 
BRANCH  15  18
ATOM     18  O5  UNK     1      37.244  -9.709   1.496  1.00  0.00    -0.361 OA
ATOM     19  H10 UNK     1      37.953  -9.495   0.864  1.00  0.00     0.217 HD
ENDBRANCH  15  18
ENDBRANCH   5  12
BRANCH   8  20
ATOM     20  O2  UNK     1      37.857  -3.641  10.262  1.00  0.00    -0.360 OA
ATOM     21  H8  UNK     1      38.051  -2.853  10.794  1.00  0.00     0.217 HD
ENDBRANCH   8  20
BRANCH  10  22
ATOM     22  O4  UNK     1      38.937  -0.486   6.880  1.00  0.00    -0.361 OA
ATOM     23  H9  UNK     1      38.938   0.072   7.677  1.00  0.00     0.217 HD
ENDBRANCH  10  22
TORSDOF 4
ENDMDL
MODEL 13
REMARK VINA RESULT:      -5.7      2.721      6.659
REMARK  4 active torsions:
REMARK  status: ('A' for Active; 'I' for Inactive)
REMARK    1  A    between atoms: O2_2  and  C7_12 
REMARK    2  A    between atoms: O4_4  and  C9_14 
REMARK    3  A    between atoms: O5_5  and  C15_20 
REMARK    4  A    between atoms: C3_8  and  C4_9 
ROOT
ATOM      1  O1  UNK     1      42.304   2.799   8.130  1.00  0.00    -0.309 OA
ATOM      2  O3  UNK     1      43.048  -0.970   9.488  1.00  0.00    -0.287 OA
ATOM      3  C1  UNK     1      41.577   0.492   8.355  1.00  0.00     0.081 A 
ATOM      4  C2  UNK     1      41.386   1.801   7.917  1.00  0.00     0.095 A 
ATOM      5  C3  UNK     1      43.467   2.490   8.820  1.00  0.00     0.090 A 
ATOM      6  C5  UNK     1      42.814   0.158   9.078  1.00  0.00     0.190 A 
ATOM      7  C6  UNK     1      43.768   1.267   9.284  1.00  0.00     0.094 A 
ATOM      8  C7  UNK     1      40.609  -0.484   8.108  1.00  0.00     0.085 A 
ATOM      9  C8  UNK     1      40.223   2.143   7.227  1.00  0.00     0.075 A 
ATOM     10  C9  UNK     1      39.253   1.172   6.979  1.00  0.00     0.071 A 
ATOM     11  C10 UNK     1      39.445  -0.140   7.419  1.00  0.00     0.074 A 
ENDROOT
BRANCH   5  12
ATOM     12  C4  UNK     1      44.385   3.634   8.988  1.00  0.00    -0.002 A 
ATOM     13  C12 UNK     1      43.879   4.904   9.273  1.00  0.00     0.017 A 
ATOM     14  C14 UNK     1      44.747   5.984   9.432  1.00  0.00     0.037 A 
ATOM     15  C15 UNK     1      46.124   5.798   9.306  1.00  0.00     0.065 A 
ATOM     16  C13 UNK     1      46.632   4.531   9.021  1.00  0.00     0.037 A 
ATOM     17  C11 UNK     1      45.765   3.450   8.863  1.00  0.00     0.017 A 
BRANCH  15  18
ATOM     18  O5  UNK     1      46.970   6.852   9.460  1.00  0.00    -0.361 OA
ATOM     19  H10 UNK     1      47.861   6.585   9.176  1.00  0.00     0.217 HD
ENDBRANCH  15  18
ENDBRANCH   5  12
BRANCH   8  20
ATOM     20  O2  UNK     1      40.749  -1.776   8.515  1.00  0.00    -0.360 OA
ATOM     21  H8  UNK     1      39.983  -2.050   9.043  1.00  0.00     0.217 HD
ENDBRANCH   8  20
BRANCH  10  22
ATOM     22  O4  UNK     1      38.116   1.502   6.306  1.00  0.00    -0.361 OA
ATOM     23  H9  UNK     1      37.675   0.687   6.012  1.00  0.00     0.217 HD
ENDBRANCH  10  22
TORSDOF 4
ENDMDL
MODEL 14
REMARK VINA RESULT:      -5.7      5.905      9.351
REMARK  4 active torsions:
REMARK  status: ('A' for Active; 'I' for Inactive)
REMARK    1  A    between atoms: O2_2  and  C7_12 
REMARK    2  A    between atoms: O4_4  and  C9_14 
REMARK    3  A    between atoms: O5_5  and  C15_20 
REMARK    4  A    between atoms: C3_8  and  C4_9 
ROOT
ATOM      1  O1  UNK     1      38.350  -0.870   7.650  1.00  0.00    -0.309 OA
ATOM      2  O3  UNK     1      34.433  -1.475   8.594  1.00  0.00    -0.287 OA
ATOM      3  C1  UNK     1      36.368  -2.264   7.490  1.00  0.00     0.081 A 
ATOM      4  C2  UNK     1      37.705  -1.996   7.205  1.00  0.00     0.095 A 
ATOM      5  C3  UNK     1      37.635   0.045   8.409  1.00  0.00     0.090 A 
ATOM      6  C5  UNK     1      35.608  -1.302   8.304  1.00  0.00     0.190 A 
ATOM      7  C6  UNK     1      36.346  -0.105   8.755  1.00  0.00     0.094 A 
ATOM      8  C7  UNK     1      35.762  -3.428   7.012  1.00  0.00     0.085 A 
ATOM      9  C8  UNK     1      38.448  -2.893   6.438  1.00  0.00     0.075 A 
ATOM     10  C9  UNK     1      37.848  -4.058   5.957  1.00  0.00     0.071 A 
ATOM     11  C10 UNK     1      36.507  -4.325   6.243  1.00  0.00     0.074 A 
ENDROOT
BRANCH   5  12
ATOM     12  C4  UNK     1      38.425   1.215   8.839  1.00  0.00    -0.002 A 
ATOM     13  C12 UNK     1      39.348   1.797   7.967  1.00  0.00     0.017 A 
ATOM     14  C14 UNK     1      40.095   2.903   8.375  1.00  0.00     0.037 A 
ATOM     15  C15 UNK     1      39.921   3.430   9.654  1.00  0.00     0.065 A 
ATOM     16  C13 UNK     1      39.000   2.851  10.527  1.00  0.00     0.037 A 
ATOM     17  C11 UNK     1      38.253   1.745  10.120  1.00  0.00     0.017 A 
BRANCH  15  18
ATOM     18  O5  UNK     1      40.650   4.508  10.051  1.00  0.00    -0.361 OA
ATOM     19  H10 UNK     1      41.241   4.772   9.325  1.00  0.00     0.217 HD
ENDBRANCH  15  18
ENDBRANCH   5  12
BRANCH   8  20
ATOM     20  O2  UNK     1      34.460  -3.736   7.263  1.00  0.00    -0.360 OA
ATOM     21  H8  UNK     1      33.926  -3.634   6.460  1.00  0.00     0.217 HD
ENDBRANCH   8  20
BRANCH  10  22
ATOM     22  O4  UNK     1      38.570  -4.936   5.208  1.00  0.00    -0.361 OA
ATOM     23  H9  UNK     1      39.379  -4.494   4.896  1.00  0.00     0.217 HD
ENDBRANCH  10  22
TORSDOF 4
ENDMDL
MODEL 15
REMARK VINA RESULT:      -5.6      6.576     10.341
REMARK  4 active torsions:
REMARK  status: ('A' for Active; 'I' for Inactive)
REMARK    1  A    between atoms: O2_2  and  C7_12 
REMARK    2  A    between atoms: O4_4  and  C9_14 
REMARK    3  A    between atoms: O5_5  and  C15_20 
REMARK    4  A    between atoms: C3_8  and  C4_9 
ROOT
ATOM      1  O1  UNK     1      38.526  -4.450   6.006  1.00  0.00    -0.309 OA
ATOM      2  O3  UNK     1      34.994  -2.549   6.720  1.00  0.00    -0.287 OA
ATOM      3  C1  UNK     1      37.346  -2.549   6.951  1.00  0.00     0.081 A 
ATOM      4  C2  UNK     1      38.517  -3.251   6.673  1.00  0.00     0.095 A 
ATOM      5  C3  UNK     1      37.315  -4.989   5.599  1.00  0.00     0.090 A 
ATOM      6  C5  UNK     1      36.059  -3.113   6.512  1.00  0.00     0.190 A 
ATOM      7  C6  UNK     1      36.123  -4.406   5.801  1.00  0.00     0.094 A 
ATOM      8  C7  UNK     1      37.396  -1.331   7.632  1.00  0.00     0.085 A 
ATOM      9  C8  UNK     1      39.750  -2.738   7.075  1.00  0.00     0.075 A 
ATOM     10  C9  UNK     1      39.806  -1.521   7.757  1.00  0.00     0.071 A 
ATOM     11  C10 UNK     1      38.631  -0.820   8.035  1.00  0.00     0.074 A 
ENDROOT
BRANCH   5  12
ATOM     12  C4  UNK     1      37.440  -6.276   4.888  1.00  0.00    -0.002 A 
ATOM     13  C12 UNK     1      36.750  -6.487   3.692  1.00  0.00     0.017 A 
ATOM     14  C14 UNK     1      36.868  -7.704   3.021  1.00  0.00     0.037 A 
ATOM     15  C15 UNK     1      37.677  -8.714   3.542  1.00  0.00     0.065 A 
ATOM     16  C13 UNK     1      38.367  -8.507   4.736  1.00  0.00     0.037 A 
ATOM     17  C11 UNK     1      38.250  -7.290   5.408  1.00  0.00     0.017 A 
BRANCH  15  18
ATOM     18  O5  UNK     1      37.791  -9.901   2.887  1.00  0.00    -0.361 OA
ATOM     19  H10 UNK     1      36.904 -10.203   2.627  1.00  0.00     0.217 HD
ENDBRANCH  15  18
ENDBRANCH   5  12
BRANCH   8  20
ATOM     20  O2  UNK     1      36.281  -0.608   7.927  1.00  0.00    -0.360 OA
ATOM     21  H8  UNK     1      36.143   0.088   7.266  1.00  0.00     0.217 HD
ENDBRANCH   8  20
BRANCH  10  22
ATOM     22  O4  UNK     1      41.008  -1.017   8.151  1.00  0.00    -0.361 OA
ATOM     23  H9  UNK     1      41.164  -0.175   7.690  1.00  0.00     0.217 HD
ENDBRANCH  10  22
TORSDOF 4
ENDMDL
MODEL 16
REMARK VINA RESULT:      -5.6      2.542      3.367
REMARK  4 active torsions:
REMARK  status: ('A' for Active; 'I' for Inactive)
REMARK    1  A    between atoms: O2_2  and  C7_12 
REMARK    2  A    between atoms: O4_4  and  C9_14 
REMARK    3  A    between atoms: O5_5  and  C15_20 
REMARK    4  A    between atoms: C3_8  and  C4_9 
ROOT
ATOM      1  O1  UNK     1      42.682   3.199   8.713  1.00  0.00    -0.309 OA
ATOM      2  O3  UNK     1      46.080   1.594   7.138  1.00  0.00    -0.287 OA
ATOM      3  C1  UNK     1      45.087   3.327   8.401  1.00  0.00     0.081 A 
ATOM      4  C2  UNK     1      43.889   3.821   8.912  1.00  0.00     0.095 A 
ATOM      5  C3  UNK     1      42.656   2.032   7.964  1.00  0.00     0.090 A 
ATOM      6  C5  UNK     1      45.066   2.085   7.614  1.00  0.00     0.190 A 
ATOM      7  C6  UNK     1      43.743   1.455   7.426  1.00  0.00     0.094 A 
ATOM      8  C7  UNK     1      46.287   4.002   8.636  1.00  0.00     0.085 A 
ATOM      9  C8  UNK     1      43.882   4.996   9.663  1.00  0.00     0.075 A 
ATOM     10  C9  UNK     1      45.078   5.675   9.901  1.00  0.00     0.071 A 
ATOM     11  C10 UNK     1      46.279   5.179   9.387  1.00  0.00     0.074 A 
ENDROOT
BRANCH   5  12
ATOM     12  C4  UNK     1      41.310   1.444   7.817  1.00  0.00    -0.002 A 
ATOM     13  C12 UNK     1      41.071   0.129   8.221  1.00  0.00     0.017 A 
ATOM     14  C14 UNK     1      39.799  -0.427   8.081  1.00  0.00     0.037 A 
ATOM     15  C15 UNK     1      38.762   0.331   7.537  1.00  0.00     0.065 A 
ATOM     16  C13 UNK     1      38.998   1.645   7.131  1.00  0.00     0.037 A 
ATOM     17  C11 UNK     1      40.269   2.201   7.271  1.00  0.00     0.017 A 
BRANCH  15  18
ATOM     18  O5  UNK     1      37.522  -0.212   7.400  1.00  0.00    -0.361 OA
ATOM     19  H10 UNK     1      37.315  -0.289   6.452  1.00  0.00     0.217 HD
ENDBRANCH  15  18
ENDBRANCH   5  12
BRANCH   8  20
ATOM     20  O2  UNK     1      47.484   3.561   8.159  1.00  0.00    -0.360 OA
ATOM     21  H8  UNK     1      47.877   4.220   7.565  1.00  0.00     0.217 HD
ENDBRANCH   8  20
BRANCH  10  22
ATOM     22  O4  UNK     1      45.075   6.822  10.634  1.00  0.00    -0.361 OA
ATOM     23  H9  UNK     1      45.469   6.641  11.505  1.00  0.00     0.217 HD
ENDBRANCH  10  22
TORSDOF 4
ENDMDL
MODEL 17
REMARK VINA RESULT:      -5.6      5.658      8.523
REMARK  4 active torsions:
REMARK  status: ('A' for Active; 'I' for Inactive)
REMARK    1  A    between atoms: O2_2  and  C7_12 
REMARK    2  A    between atoms: O4_4  and  C9_14 
REMARK    3  A    between atoms: O5_5  and  C15_20 
REMARK    4  A    between atoms: C3_8  and  C4_9 
ROOT
ATOM      1  O1  UNK     1      38.899  -1.138   8.044  1.00  0.00    -0.309 OA
ATOM      2  O3  UNK     1      37.564  -3.418  11.146  1.00  0.00    -0.287 OA
ATOM      3  C1  UNK     1      38.048  -3.270   8.837  1.00  0.00     0.081 A 
ATOM      4  C2  UNK     1      38.515  -2.436   7.823  1.00  0.00     0.095 A 
ATOM      5  C3  UNK     1      38.810  -0.633   9.332  1.00  0.00     0.090 A 
ATOM      6  C5  UNK     1      37.962  -2.741  10.208  1.00  0.00     0.190 A 
ATOM      7  C6  UNK     1      38.384  -1.338  10.393  1.00  0.00     0.094 A 
ATOM      8  C7  UNK     1      37.672  -4.585   8.555  1.00  0.00     0.085 A 
ATOM      9  C8  UNK     1      38.608  -2.914   6.516  1.00  0.00     0.075 A 
ATOM     10  C9  UNK     1      38.233  -4.226   6.228  1.00  0.00     0.071 A 
ATOM     11  C10 UNK     1      37.765  -5.060   7.246  1.00  0.00     0.074 A 
ENDROOT
BRANCH   5  12
ATOM     12  C4  UNK     1      39.253   0.770   9.458  1.00  0.00    -0.002 A 
ATOM     13  C12 UNK     1      38.779   1.564  10.505  1.00  0.00     0.017 A 
ATOM     14  C14 UNK     1      39.198   2.889  10.623  1.00  0.00     0.037 A 
ATOM     15  C15 UNK     1      40.091   3.425   9.695  1.00  0.00     0.065 A 
ATOM     16  C13 UNK     1      40.565   2.635   8.648  1.00  0.00     0.037 A 
ATOM     17  C11 UNK     1      40.147   1.309   8.530  1.00  0.00     0.017 A 
BRANCH  15  18
ATOM     18  O5  UNK     1      40.498   4.718   9.810  1.00  0.00    -0.361 OA
ATOM     19  H10 UNK     1      41.300   4.845   9.274  1.00  0.00     0.217 HD
ENDBRANCH  15  18
ENDBRANCH   5  12
BRANCH   8  20
ATOM     20  O2  UNK     1      37.210  -5.438   9.510  1.00  0.00    -0.360 OA
ATOM     21  H8  UNK     1      37.706  -6.272   9.488  1.00  0.00     0.217 HD
ENDBRANCH   8  20
BRANCH  10  22
ATOM     22  O4  UNK     1      38.323  -4.696   4.953  1.00  0.00    -0.361 OA
ATOM     23  H9  UNK     1      38.514  -5.649   4.980  1.00  0.00     0.217 HD
ENDBRANCH  10  22
TORSDOF 4
ENDMDL
MODEL 18
REMARK VINA RESULT:      -5.6      2.302      4.449
REMARK  4 active torsions:
REMARK  status: ('A' for Active; 'I' for Inactive)
REMARK    1  A    between atoms: O2_2  and  C7_12 
REMARK    2  A    between atoms: O4_4  and  C9_14 
REMARK    3  A    between atoms: O5_5  and  C15_20 
REMARK    4  A    between atoms: C3_8  and  C4_9 
ROOT
ATOM      1  O1  UNK     1      47.961   1.646   9.539  1.00  0.00    -0.309 OA
ATOM      2  O3  UNK     1      49.741   3.987   6.719  1.00  0.00    -0.287 OA
ATOM      3  C1  UNK     1      49.924   2.867   8.791  1.00  0.00     0.081 A 
ATOM      4  C2  UNK     1      49.256   2.065   9.714  1.00  0.00     0.095 A 
ATOM      5  C3  UNK     1      47.287   2.047   8.395  1.00  0.00     0.090 A 
ATOM      6  C5  UNK     1      49.215   3.286   7.572  1.00  0.00     0.190 A 
ATOM      7  C6  UNK     1      47.824   2.812   7.430  1.00  0.00     0.094 A 
ATOM      8  C7  UNK     1      51.243   3.262   9.021  1.00  0.00     0.085 A 
ATOM      9  C8  UNK     1      49.906   1.652  10.877  1.00  0.00     0.075 A 
ATOM     10  C9  UNK     1      51.224   2.044  11.113  1.00  0.00     0.071 A 
ATOM     11  C10 UNK     1      51.891   2.849  10.187  1.00  0.00     0.074 A 
ENDROOT
BRANCH   5  12
ATOM     12  C4  UNK     1      45.905   1.537   8.304  1.00  0.00    -0.002 A 
ATOM     13  C12 UNK     1      45.133   1.799   7.170  1.00  0.00     0.017 A 
ATOM     14  C14 UNK     1      43.827   1.317   7.085  1.00  0.00     0.037 A 
ATOM     15  C15 UNK     1      43.288   0.571   8.133  1.00  0.00     0.065 A 
ATOM     16  C13 UNK     1      44.056   0.308   9.268  1.00  0.00     0.037 A 
ATOM     17  C11 UNK     1      45.363   0.789   9.353  1.00  0.00     0.017 A 
BRANCH  15  18
ATOM     18  O5  UNK     1      42.014   0.102   8.050  1.00  0.00    -0.361 OA
ATOM     19  H10 UNK     1      41.400   0.857   8.059  1.00  0.00     0.217 HD
ENDBRANCH  15  18
ENDBRANCH   5  12
BRANCH   8  20
ATOM     20  O2  UNK     1      51.939   4.045   8.151  1.00  0.00    -0.360 OA
ATOM     21  H8  UNK     1      51.366   4.335   7.423  1.00  0.00     0.217 HD
ENDBRANCH   8  20
BRANCH  10  22
ATOM     22  O4  UNK     1      51.861   1.643  12.247  1.00  0.00    -0.361 OA
ATOM     23  H9  UNK     1      52.634   2.215  12.395  1.00  0.00     0.217 HD
ENDBRANCH  10  22
TORSDOF 4
ENDMDL
MODEL 19
REMARK VINA RESULT:      -5.5      3.207      4.492
REMARK  4 active torsions:
REMARK  status: ('A' for Active; 'I' for Inactive)
REMARK    1  A    between atoms: O2_2  and  C7_12 
REMARK    2  A    between atoms: O4_4  and  C9_14 
REMARK    3  A    between atoms: O5_5  and  C15_20 
REMARK    4  A    between atoms: C3_8  and  C4_9 
ROOT
ATOM      1  O1  UNK     1      41.547   3.273   9.082  1.00  0.00    -0.309 OA
ATOM      2  O3  UNK     1      45.396   2.872   7.809  1.00  0.00    -0.287 OA
ATOM      3  C1  UNK     1      43.813   4.143   9.018  1.00  0.00     0.081 A 
ATOM      4  C2  UNK     1      42.482   4.218   9.421  1.00  0.00     0.095 A 
ATOM      5  C3  UNK     1      41.945   2.201   8.298  1.00  0.00     0.090 A 
ATOM      6  C5  UNK     1      44.243   3.002   8.195  1.00  0.00     0.190 A 
ATOM      7  C6  UNK     1      43.199   2.014   7.855  1.00  0.00     0.094 A 
ATOM      8  C7  UNK     1      44.723   5.134   9.394  1.00  0.00     0.085 A 
ATOM      9  C8  UNK     1      42.049   5.288  10.204  1.00  0.00     0.075 A 
ATOM     10  C9  UNK     1      42.953   6.282  10.582  1.00  0.00     0.071 A 
ATOM     11  C10 UNK     1      44.288   6.205  10.177  1.00  0.00     0.074 A 
ENDROOT
BRANCH   5  12
ATOM     12  C4  UNK     1      40.864   1.243   7.998  1.00  0.00    -0.002 A 
ATOM     13  C12 UNK     1      41.051  -0.122   8.228  1.00  0.00     0.017 A 
ATOM     14  C14 UNK     1      40.028  -1.027   7.944  1.00  0.00     0.037 A 
ATOM     15  C15 UNK     1      38.815  -0.571   7.428  1.00  0.00     0.065 A 
ATOM     16  C13 UNK     1      38.626   0.791   7.195  1.00  0.00     0.037 A 
ATOM     17  C11 UNK     1      39.647   1.697   7.480  1.00  0.00     0.017 A 
BRANCH  15  18
ATOM     18  O5  UNK     1      37.819  -1.455   7.150  1.00  0.00    -0.361 OA
ATOM     19  H10 UNK     1      37.086  -1.309   7.773  1.00  0.00     0.217 HD
ENDBRANCH  15  18
ENDBRANCH   5  12
BRANCH   8  20
ATOM     20  O2  UNK     1      46.034   5.106   9.027  1.00  0.00    -0.360 OA
ATOM     21  H8  UNK     1      46.184   4.423   8.355  1.00  0.00     0.217 HD
ENDBRANCH   8  20
BRANCH  10  22
ATOM     22  O4  UNK     1      42.535   7.328  11.346  1.00  0.00    -0.361 OA
ATOM     23  H9  UNK     1      43.286   7.658  11.868  1.00  0.00     0.217 HD
ENDBRANCH  10  22
TORSDOF 4
ENDMDL
MODEL 20
REMARK VINA RESULT:      -5.4      4.042      8.589
REMARK  4 active torsions:
REMARK  status: ('A' for Active; 'I' for Inactive)
REMARK    1  A    between atoms: O2_2  and  C7_12 
REMARK    2  A    between atoms: O4_4  and  C9_14 
REMARK    3  A    between atoms: O5_5  and  C15_20 
REMARK    4  A    between atoms: C3_8  and  C4_9 
ROOT
ATOM      1  O1  UNK     1      39.549  -0.412   7.747  1.00  0.00    -0.309 OA
ATOM      2  O3  UNK     1      35.692  -0.036   9.007  1.00  0.00    -0.287 OA
ATOM      3  C1  UNK     1      37.294  -1.312   7.828  1.00  0.00     0.081 A 
ATOM      4  C2  UNK     1      38.628  -1.379   7.430  1.00  0.00     0.095 A 
ATOM      5  C3  UNK     1      39.129   0.683   8.488  1.00  0.00     0.090 A 
ATOM      6  C5  UNK     1      36.847  -0.157   8.623  1.00  0.00     0.190 A 
ATOM      7  C6  UNK     1      37.875   0.857   8.935  1.00  0.00     0.094 A 
ATOM      8  C7  UNK     1      36.400  -2.326   7.478  1.00  0.00     0.085 A 
ATOM      9  C8  UNK     1      39.078  -2.463   6.678  1.00  0.00     0.075 A 
ATOM     10  C9  UNK     1      38.189  -3.479   6.325  1.00  0.00     0.071 A 
ATOM     11  C10 UNK     1      36.852  -3.410   6.724  1.00  0.00     0.074 A 
ENDROOT
BRANCH   5  12
ATOM     12  C4  UNK     1      40.199   1.657   8.777  1.00  0.00    -0.002 A 
ATOM     13  C12 UNK     1      41.517   1.384   8.404  1.00  0.00     0.017 A 
ATOM     14  C14 UNK     1      42.528   2.305   8.678  1.00  0.00     0.037 A 
ATOM     15  C15 UNK     1      42.225   3.503   9.325  1.00  0.00     0.065 A 
ATOM     16  C13 UNK     1      40.910   3.779   9.700  1.00  0.00     0.037 A 
ATOM     17  C11 UNK     1      39.898   2.858   9.426  1.00  0.00     0.017 A 
BRANCH  15  18
ATOM     18  O5  UNK     1      43.211   4.400   9.593  1.00  0.00    -0.361 OA
ATOM     19  H10 UNK     1      44.065   4.018   9.326  1.00  0.00     0.217 HD
ENDBRANCH  15  18
ENDBRANCH   5  12
BRANCH   8  20
ATOM     20  O2  UNK     1      35.088  -2.308   7.842  1.00  0.00    -0.360 OA
ATOM     21  H8  UNK     1      34.788  -1.396   7.985  1.00  0.00     0.217 HD
ENDBRANCH   8  20
BRANCH  10  22
ATOM     22  O4  UNK     1      38.625  -4.540   5.591  1.00  0.00    -0.361 OA
ATOM     23  H9  UNK     1      38.154  -5.340   5.881  1.00  0.00     0.217 HD
ENDBRANCH  10  22
TORSDOF 4
ENDMDL
