MODEL 1
REMARK VINA RESULT:      -6.1      0.000      0.000
REMARK  4 active torsions:
REMARK  status: ('A' for Active; 'I' for Inactive)
REMARK    1  A    between atoms: O2_2  and  C7_12 
REMARK    2  A    between atoms: O4_4  and  C9_14 
REMARK    3  A    between atoms: O5_5  and  C15_20 
REMARK    4  A    between atoms: C3_8  and  C4_9 
ROOT
ATOM      1  O1  UNK     1      38.957  22.054  11.026  1.00  0.00    -0.309 OA
ATOM      2  O3  UNK     1      37.788  19.599  14.061  1.00  0.00    -0.287 OA
ATOM      3  C1  UNK     1      39.376  20.080  12.378  1.00  0.00     0.081 A 
ATOM      4  C2  UNK     1      39.717  20.959  11.353  1.00  0.00     0.095 A 
ATOM      5  C3  UNK     1      37.793  22.286  11.743  1.00  0.00     0.090 A 
ATOM      6  C5  UNK     1      38.147  20.329  13.148  1.00  0.00     0.190 A 
ATOM      7  C6  UNK     1      37.361  21.517  12.755  1.00  0.00     0.094 A 
ATOM      8  C7  UNK     1      40.189  18.982  12.668  1.00  0.00     0.085 A 
ATOM      9  C8  UNK     1      40.878  20.747  10.610  1.00  0.00     0.075 A 
ATOM     10  C9  UNK     1      41.694  19.652  10.895  1.00  0.00     0.071 A 
ATOM     11  C10 UNK     1      41.350  18.770  11.922  1.00  0.00     0.074 A 
ENDROOT
BRANCH   5  12
ATOM     12  C4  UNK     1      37.055  23.491  11.313  1.00  0.00    -0.002 A 
ATOM     13  C12 UNK     1      36.031  23.387  10.369  1.00  0.00     0.017 A 
ATOM     14  C14 UNK     1      35.335  24.525   9.963  1.00  0.00     0.037 A 
ATOM     15  C15 UNK     1      35.660  25.771  10.499  1.00  0.00     0.065 A 
ATOM     16  C13 UNK     1      36.682  25.878  11.442  1.00  0.00     0.037 A 
ATOM     17  C11 UNK     1      37.379  24.740  11.849  1.00  0.00     0.017 A 
BRANCH  15  18
ATOM     18  O5  UNK     1      34.981  26.881  10.102  1.00  0.00    -0.361 OA
ATOM     19  H10 UNK     1      34.467  26.667   9.304  1.00  0.00     0.217 HD
ENDBRANCH  15  18
ENDBRANCH   5  12
BRANCH   8  20
ATOM     20  O2  UNK     1      39.899  18.094  13.659  1.00  0.00    -0.360 OA
ATOM     21  H8  UNK     1      38.940  17.962  13.727  1.00  0.00     0.217 HD
ENDBRANCH   8  20
BRANCH  10  22
ATOM     22  O4  UNK     1      42.828  19.441  10.172  1.00  0.00    -0.361 OA
ATOM     23  H9  UNK     1      42.749  18.595   9.699  1.00  0.00     0.217 HD
ENDBRANCH  10  22
TORSDOF 4
ENDMDL
MODEL 2
REMARK VINA RESULT:      -6.0      2.118      6.874
REMARK  4 active torsions:
REMARK  status: ('A' for Active; 'I' for Inactive)
REMARK    1  A    between atoms: O2_2  and  C7_12 
REMARK    2  A    between atoms: O4_4  and  C9_14 
REMARK    3  A    between atoms: O5_5  and  C15_20 
REMARK    4  A    between atoms: C3_8  and  C4_9 
ROOT
ATOM      1  O1  UNK     1      36.683  23.259  10.677  1.00  0.00    -0.309 OA
ATOM      2  O3  UNK     1      34.430  22.767  14.036  1.00  0.00    -0.287 OA
ATOM      3  C1  UNK     1      34.771  23.938  12.012  1.00  0.00     0.081 A 
ATOM      4  C2  UNK     1      35.583  24.052  10.886  1.00  0.00     0.095 A 
ATOM      5  C3  UNK     1      37.003  22.308  11.635  1.00  0.00     0.090 A 
ATOM      6  C5  UNK     1      35.101  22.923  13.026  1.00  0.00     0.190 A 
ATOM      7  C6  UNK     1      36.295  22.097  12.756  1.00  0.00     0.094 A 
ATOM      8  C7  UNK     1      33.663  24.772  12.172  1.00  0.00     0.085 A 
ATOM      9  C8  UNK     1      35.292  25.004   9.909  1.00  0.00     0.075 A 
ATOM     10  C9  UNK     1      34.186  25.841  10.064  1.00  0.00     0.071 A 
ATOM     11  C10 UNK     1      33.373  25.725  11.194  1.00  0.00     0.074 A 
ENDROOT
BRANCH   5  12
ATOM     12  C4  UNK     1      38.199  21.507  11.309  1.00  0.00    -0.002 A 
ATOM     13  C12 UNK     1      38.742  21.548  10.023  1.00  0.00     0.017 A 
ATOM     14  C14 UNK     1      39.872  20.790   9.715  1.00  0.00     0.037 A 
ATOM     15  C15 UNK     1      40.463  19.989  10.692  1.00  0.00     0.065 A 
ATOM     16  C13 UNK     1      39.922  19.945  11.977  1.00  0.00     0.037 A 
ATOM     17  C11 UNK     1      38.793  20.702  12.286  1.00  0.00     0.017 A 
BRANCH  15  18
ATOM     18  O5  UNK     1      41.564  19.249  10.391  1.00  0.00    -0.361 OA
ATOM     19  H10 UNK     1      41.554  19.043   9.440  1.00  0.00     0.217 HD
ENDBRANCH  15  18
ENDBRANCH   5  12
BRANCH   8  20
ATOM     20  O2  UNK     1      32.838  24.700  13.253  1.00  0.00    -0.360 OA
ATOM     21  H8  UNK     1      33.283  24.252  13.990  1.00  0.00     0.217 HD
ENDBRANCH   8  20
BRANCH  10  22
ATOM     22  O4  UNK     1      33.898  26.771   9.113  1.00  0.00    -0.361 OA
ATOM     23  H9  UNK     1      32.943  26.954   9.129  1.00  0.00     0.217 HD
ENDBRANCH  10  22
TORSDOF 4
ENDMDL
MODEL 3
REMARK VINA RESULT:      -5.8      4.300      5.471
REMARK  4 active torsions:
REMARK  status: ('A' for Active; 'I' for Inactive)
REMARK    1  A    between atoms: O2_2  and  C7_12 
REMARK    2  A    between atoms: O4_4  and  C9_14 
REMARK    3  A    between atoms: O5_5  and  C15_20 
REMARK    4  A    between atoms: C3_8  and  C4_9 
ROOT
ATOM      1  O1  UNK     1      41.653  21.462  12.357  1.00  0.00    -0.309 OA
ATOM      2  O3  UNK     1      44.259  18.761  10.771  1.00  0.00    -0.287 OA
ATOM      3  C1  UNK     1      42.297  19.143  12.032  1.00  0.00     0.081 A 
ATOM      4  C2  UNK     1      41.446  20.118  12.545  1.00  0.00     0.095 A 
ATOM      5  C3  UNK     1      42.764  21.863  11.631  1.00  0.00     0.090 A 
ATOM      6  C5  UNK     1      43.472  19.564  11.252  1.00  0.00     0.190 A 
ATOM      7  C6  UNK     1      43.652  21.020  11.080  1.00  0.00     0.094 A 
ATOM      8  C7  UNK     1      42.036  17.789  12.254  1.00  0.00     0.085 A 
ATOM      9  C8  UNK     1      40.324  19.746  13.285  1.00  0.00     0.075 A 
ATOM     10  C9  UNK     1      40.059  18.395  13.511  1.00  0.00     0.071 A 
ATOM     11  C10 UNK     1      40.914  17.418  12.996  1.00  0.00     0.074 A 
ENDROOT
BRANCH   5  12
ATOM     12  C4  UNK     1      42.888  23.327  11.484  1.00  0.00    -0.002 A 
ATOM     13  C12 UNK     1      43.521  23.869  10.364  1.00  0.00     0.017 A 
ATOM     14  C14 UNK     1      43.638  25.252  10.226  1.00  0.00     0.037 A 
ATOM     15  C15 UNK     1      43.123  26.098  11.209  1.00  0.00     0.065 A 
ATOM     16  C13 UNK     1      42.491  25.559  12.330  1.00  0.00     0.037 A 
ATOM     17  C11 UNK     1      42.373  24.176  12.468  1.00  0.00     0.017 A 
BRANCH  15  18
ATOM     18  O5  UNK     1      43.239  27.447  11.075  1.00  0.00    -0.361 OA
ATOM     19  H10 UNK     1      43.434  27.834  11.946  1.00  0.00     0.217 HD
ENDBRANCH  15  18
ENDBRANCH   5  12
BRANCH   8  20
ATOM     20  O2  UNK     1      42.837  16.798  11.774  1.00  0.00    -0.360 OA
ATOM     21  H8  UNK     1      43.739  16.893  12.118  1.00  0.00     0.217 HD
ENDBRANCH   8  20
BRANCH  10  22
ATOM     22  O4  UNK     1      38.965  18.027  14.233  1.00  0.00    -0.361 OA
ATOM     23  H9  UNK     1      38.723  18.755  14.832  1.00  0.00     0.217 HD
ENDBRANCH  10  22
TORSDOF 4
ENDMDL
MODEL 4
REMARK VINA RESULT:      -5.6      2.910      4.934
REMARK  4 active torsions:
REMARK  status: ('A' for Active; 'I' for Inactive)
REMARK    1  A    between atoms: O2_2  and  C7_12 
REMARK    2  A    between atoms: O4_4  and  C9_14 
REMARK    3  A    between atoms: O5_5  and  C15_20 
REMARK    4  A    between atoms: C3_8  and  C4_9 
ROOT
ATOM      1  O1  UNK     1      42.727  21.402  10.667  1.00  0.00    -0.309 OA
ATOM      2  O3  UNK     1      43.365  17.543  11.807  1.00  0.00    -0.287 OA
ATOM      3  C1  UNK     1      44.293  19.591  11.081  1.00  0.00     0.081 A 
ATOM      4  C2  UNK     1      44.004  20.900  10.702  1.00  0.00     0.095 A 
ATOM      5  C3  UNK     1      41.679  20.564  11.017  1.00  0.00     0.090 A 
ATOM      6  C5  UNK     1      43.184  18.702  11.462  1.00  0.00     0.190 A 
ATOM      7  C6  UNK     1      41.829  19.287  11.406  1.00  0.00     0.094 A 
ATOM      8  C7  UNK     1      45.612  19.135  11.099  1.00  0.00     0.085 A 
ATOM      9  C8  UNK     1      45.037  21.765  10.338  1.00  0.00     0.075 A 
ATOM     10  C9  UNK     1      46.357  21.314  10.354  1.00  0.00     0.071 A 
ATOM     11  C10 UNK     1      46.644  20.001  10.733  1.00  0.00     0.074 A 
ENDROOT
BRANCH   5  12
ATOM     12  C4  UNK     1      40.351  21.205  10.950  1.00  0.00    -0.002 A 
ATOM     13  C12 UNK     1      39.950  22.094  11.949  1.00  0.00     0.017 A 
ATOM     14  C14 UNK     1      38.695  22.699  11.886  1.00  0.00     0.037 A 
ATOM     15  C15 UNK     1      37.836  22.417  10.823  1.00  0.00     0.065 A 
ATOM     16  C13 UNK     1      38.234  21.528   9.824  1.00  0.00     0.037 A 
ATOM     17  C11 UNK     1      39.489  20.923   9.887  1.00  0.00     0.017 A 
BRANCH  15  18
ATOM     18  O5  UNK     1      36.612  23.006  10.763  1.00  0.00    -0.361 OA
ATOM     19  H10 UNK     1      36.451  23.483  11.595  1.00  0.00     0.217 HD
ENDBRANCH  15  18
ENDBRANCH   5  12
BRANCH   8  20
ATOM     20  O2  UNK     1      45.946  17.865  11.462  1.00  0.00    -0.360 OA
ATOM     21  H8  UNK     1      46.772  17.863  11.970  1.00  0.00     0.217 HD
ENDBRANCH   8  20
BRANCH  10  22
ATOM     22  O4  UNK     1      47.367  22.155   9.999  1.00  0.00    -0.361 OA
ATOM     23  H9  UNK     1      47.033  22.792   9.345  1.00  0.00     0.217 HD
ENDBRANCH  10  22
TORSDOF 4
ENDMDL
MODEL 5
REMARK VINA RESULT:      -5.6      2.909      4.826
REMARK  4 active torsions:
REMARK  status: ('A' for Active; 'I' for Inactive)
REMARK    1  A    between atoms: O2_2  and  C7_12 
REMARK    2  A    between atoms: O4_4  and  C9_14 
REMARK    3  A    between atoms: O5_5  and  C15_20 
REMARK    4  A    between atoms: C3_8  and  C4_9 
ROOT
ATOM      1  O1  UNK     1      42.725  21.401  10.666  1.00  0.00    -0.309 OA
ATOM      2  O3  UNK     1      43.365  17.541  11.804  1.00  0.00    -0.287 OA
ATOM      3  C1  UNK     1      44.291  19.591  11.080  1.00  0.00     0.081 A 
ATOM      4  C2  UNK     1      44.002  20.900  10.703  1.00  0.00     0.095 A 
ATOM      5  C3  UNK     1      41.677  20.561  11.014  1.00  0.00     0.090 A 
ATOM      6  C5  UNK     1      43.183  18.700  11.460  1.00  0.00     0.190 A 
ATOM      7  C6  UNK     1      41.828  19.285  11.402  1.00  0.00     0.094 A 
ATOM      8  C7  UNK     1      45.611  19.136  11.100  1.00  0.00     0.085 A 
ATOM      9  C8  UNK     1      45.034  21.766  10.341  1.00  0.00     0.075 A 
ATOM     10  C9  UNK     1      46.355  21.316  10.358  1.00  0.00     0.071 A 
ATOM     11  C10 UNK     1      46.643  20.003  10.737  1.00  0.00     0.074 A 
ENDROOT
BRANCH   5  12
ATOM     12  C4  UNK     1      40.349  21.201  10.946  1.00  0.00    -0.002 A 
ATOM     13  C12 UNK     1      39.489  20.924   9.880  1.00  0.00     0.017 A 
ATOM     14  C14 UNK     1      38.234  21.529   9.817  1.00  0.00     0.037 A 
ATOM     15  C15 UNK     1      37.834  22.414  10.818  1.00  0.00     0.065 A 
ATOM     16  C13 UNK     1      38.691  22.695  11.882  1.00  0.00     0.037 A 
ATOM     17  C11 UNK     1      39.945  22.089  11.947  1.00  0.00     0.017 A 
BRANCH  15  18
ATOM     18  O5  UNK     1      36.611  23.005  10.754  1.00  0.00    -0.361 OA
ATOM     19  H10 UNK     1      36.561  23.541   9.943  1.00  0.00     0.217 HD
ENDBRANCH  15  18
ENDBRANCH   5  12
BRANCH   8  20
ATOM     20  O2  UNK     1      45.946  17.866  11.462  1.00  0.00    -0.360 OA
ATOM     21  H8  UNK     1      46.235  17.842  12.387  1.00  0.00     0.217 HD
ENDBRANCH   8  20
BRANCH  10  22
ATOM     22  O4  UNK     1      47.365  22.158  10.006  1.00  0.00    -0.361 OA
ATOM     23  H9  UNK     1      47.949  21.704   9.373  1.00  0.00     0.217 HD
ENDBRANCH  10  22
TORSDOF 4
ENDMDL
MODEL 6
REMARK VINA RESULT:      -5.6      3.819      4.454
REMARK  4 active torsions:
REMARK  status: ('A' for Active; 'I' for Inactive)
REMARK    1  A    between atoms: O2_2  and  C7_12 
REMARK    2  A    between atoms: O4_4  and  C9_14 
REMARK    3  A    between atoms: O5_5  and  C15_20 
REMARK    4  A    between atoms: C3_8  and  C4_9 
ROOT
ATOM      1  O1  UNK     1      42.158  21.100  11.914  1.00  0.00    -0.309 OA
ATOM      2  O3  UNK     1      38.799  20.780  14.197  1.00  0.00    -0.287 OA
ATOM      3  C1  UNK     1      40.575  19.683  13.091  1.00  0.00     0.081 A 
ATOM      4  C2  UNK     1      41.716  19.863  12.312  1.00  0.00     0.095 A 
ATOM      5  C3  UNK     1      41.431  22.216  12.299  1.00  0.00     0.090 A 
ATOM      6  C5  UNK     1      39.807  20.865  13.511  1.00  0.00     0.190 A 
ATOM      7  C6  UNK     1      40.322  22.172  13.054  1.00  0.00     0.094 A 
ATOM      8  C7  UNK     1      40.172  18.400  13.468  1.00  0.00     0.085 A 
ATOM      9  C8  UNK     1      42.463  18.759  11.903  1.00  0.00     0.075 A 
ATOM     10  C9  UNK     1      42.065  17.475  12.276  1.00  0.00     0.071 A 
ATOM     11  C10 UNK     1      40.921  17.295  13.057  1.00  0.00     0.074 A 
ENDROOT
BRANCH   5  12
ATOM     12  C4  UNK     1      41.997  23.493  11.822  1.00  0.00    -0.002 A 
ATOM     13  C12 UNK     1      42.826  23.518  10.698  1.00  0.00     0.017 A 
ATOM     14  C14 UNK     1      43.361  24.725  10.249  1.00  0.00     0.037 A 
ATOM     15  C15 UNK     1      43.069  25.912  10.921  1.00  0.00     0.065 A 
ATOM     16  C13 UNK     1      42.242  25.891  12.045  1.00  0.00     0.037 A 
ATOM     17  C11 UNK     1      41.706  24.684  12.494  1.00  0.00     0.017 A 
BRANCH  15  18
ATOM     18  O5  UNK     1      43.592  27.089  10.483  1.00  0.00    -0.361 OA
ATOM     19  H10 UNK     1      43.212  27.816  11.006  1.00  0.00     0.217 HD
ENDBRANCH  15  18
ENDBRANCH   5  12
BRANCH   8  20
ATOM     20  O2  UNK     1      39.067  18.170  14.229  1.00  0.00    -0.360 OA
ATOM     21  H8  UNK     1      38.492  17.516  13.804  1.00  0.00     0.217 HD
ENDBRANCH   8  20
BRANCH  10  22
ATOM     22  O4  UNK     1      42.792  16.394  11.879  1.00  0.00    -0.361 OA
ATOM     23  H9  UNK     1      42.577  15.640  12.454  1.00  0.00     0.217 HD
ENDBRANCH  10  22
TORSDOF 4
ENDMDL
MODEL 7
REMARK VINA RESULT:      -5.6      3.820      4.504
REMARK  4 active torsions:
REMARK  status: ('A' for Active; 'I' for Inactive)
REMARK    1  A    between atoms: O2_2  and  C7_12 
REMARK    2  A    between atoms: O4_4  and  C9_14 
REMARK    3  A    between atoms: O5_5  and  C15_20 
REMARK    4  A    between atoms: C3_8  and  C4_9 
ROOT
ATOM      1  O1  UNK     1      42.156  21.112  11.906  1.00  0.00    -0.309 OA
ATOM      2  O3  UNK     1      38.805  20.772  14.198  1.00  0.00    -0.287 OA
ATOM      3  C1  UNK     1      40.581  19.685  13.081  1.00  0.00     0.081 A 
ATOM      4  C2  UNK     1      41.718  19.872  12.299  1.00  0.00     0.095 A 
ATOM      5  C3  UNK     1      41.428  22.224  12.299  1.00  0.00     0.090 A 
ATOM      6  C5  UNK     1      39.811  20.863  13.509  1.00  0.00     0.190 A 
ATOM      7  C6  UNK     1      40.321  22.174  13.058  1.00  0.00     0.094 A 
ATOM      8  C7  UNK     1      40.182  18.399  13.453  1.00  0.00     0.085 A 
ATOM      9  C8  UNK     1      42.467  18.772  11.882  1.00  0.00     0.075 A 
ATOM     10  C9  UNK     1      42.074  17.485  12.251  1.00  0.00     0.071 A 
ATOM     11  C10 UNK     1      40.933  17.299  13.034  1.00  0.00     0.074 A 
ENDROOT
BRANCH   5  12
ATOM     12  C4  UNK     1      41.989  23.505  11.826  1.00  0.00    -0.002 A 
ATOM     13  C12 UNK     1      41.711  24.689  12.513  1.00  0.00     0.017 A 
ATOM     14  C14 UNK     1      42.241  25.899  12.066  1.00  0.00     0.037 A 
ATOM     15  C15 UNK     1      43.050  25.930  10.931  1.00  0.00     0.065 A 
ATOM     16  C13 UNK     1      43.329  24.750  10.242  1.00  0.00     0.037 A 
ATOM     17  C11 UNK     1      42.800  23.539  10.689  1.00  0.00     0.017 A 
BRANCH  15  18
ATOM     18  O5  UNK     1      43.566  27.111  10.495  1.00  0.00    -0.361 OA
ATOM     19  H10 UNK     1      43.596  27.736  11.240  1.00  0.00     0.217 HD
ENDBRANCH  15  18
ENDBRANCH   5  12
BRANCH   8  20
ATOM     20  O2  UNK     1      39.080  18.163  14.216  1.00  0.00    -0.360 OA
ATOM     21  H8  UNK     1      38.277  18.202  13.674  1.00  0.00     0.217 HD
ENDBRANCH   8  20
BRANCH  10  22
ATOM     22  O4  UNK     1      42.802  16.408  11.846  1.00  0.00    -0.361 OA
ATOM     23  H9  UNK     1      43.210  15.992  12.625  1.00  0.00     0.217 HD
ENDBRANCH  10  22
TORSDOF 4
ENDMDL
MODEL 8
REMARK VINA RESULT:      -5.5      3.842      7.921
REMARK  4 active torsions:
REMARK  status: ('A' for Active; 'I' for Inactive)
REMARK    1  A    between atoms: O2_2  and  C7_12 
REMARK    2  A    between atoms: O4_4  and  C9_14 
REMARK    3  A    between atoms: O5_5  and  C15_20 
REMARK    4  A    between atoms: C3_8  and  C4_9 
ROOT
ATOM      1  O1  UNK     1      41.506  22.928  12.203  1.00  0.00    -0.309 OA
ATOM      2  O3  UNK     1      44.663  25.189  10.972  1.00  0.00    -0.287 OA
ATOM      3  C1  UNK     1      42.463  25.129  11.832  1.00  0.00     0.081 A 
ATOM      4  C2  UNK     1      41.423  24.297  12.239  1.00  0.00     0.095 A 
ATOM      5  C3  UNK     1      42.676  22.350  11.733  1.00  0.00     0.090 A 
ATOM      6  C5  UNK     1      43.710  24.520  11.342  1.00  0.00     0.190 A 
ATOM      7  C6  UNK     1      43.749  23.043  11.321  1.00  0.00     0.094 A 
ATOM      8  C7  UNK     1      42.323  26.517  11.891  1.00  0.00     0.085 A 
ATOM      9  C8  UNK     1      40.231  24.849  12.709  1.00  0.00     0.075 A 
ATOM     10  C9  UNK     1      40.086  26.235  12.770  1.00  0.00     0.071 A 
ATOM     11  C10 UNK     1      41.130  27.068  12.361  1.00  0.00     0.074 A 
ENDROOT
BRANCH   5  12
ATOM     12  C4  UNK     1      42.661  20.874  11.743  1.00  0.00    -0.002 A 
ATOM     13  C12 UNK     1      43.859  20.159  11.678  1.00  0.00     0.017 A 
ATOM     14  C14 UNK     1      43.844  18.764  11.686  1.00  0.00     0.037 A 
ATOM     15  C15 UNK     1      42.631  18.079  11.759  1.00  0.00     0.065 A 
ATOM     16  C13 UNK     1      41.432  18.790  11.823  1.00  0.00     0.037 A 
ATOM     17  C11 UNK     1      41.447  20.185  11.815  1.00  0.00     0.017 A 
BRANCH  15  18
ATOM     18  O5  UNK     1      42.617  16.719  11.766  1.00  0.00    -0.361 OA
ATOM     19  H10 UNK     1      43.102  16.395  10.987  1.00  0.00     0.217 HD
ENDBRANCH  15  18
ENDBRANCH   5  12
BRANCH   8  20
ATOM     20  O2  UNK     1      43.310  27.373  11.506  1.00  0.00    -0.360 OA
ATOM     21  H8  UNK     1      44.145  27.148  11.946  1.00  0.00     0.217 HD
ENDBRANCH   8  20
BRANCH  10  22
ATOM     22  O4  UNK     1      38.924  26.778  13.229  1.00  0.00    -0.361 OA
ATOM     23  H9  UNK     1      38.322  26.060  13.490  1.00  0.00     0.217 HD
ENDBRANCH  10  22
TORSDOF 4
ENDMDL
MODEL 9
REMARK VINA RESULT:      -5.5      1.812      3.622
REMARK  4 active torsions:
REMARK  status: ('A' for Active; 'I' for Inactive)
REMARK    1  A    between atoms: O2_2  and  C7_12 
REMARK    2  A    between atoms: O4_4  and  C9_14 
REMARK    3  A    between atoms: O5_5  and  C15_20 
REMARK    4  A    between atoms: C3_8  and  C4_9 
ROOT
ATOM      1  O1  UNK     1      39.891  19.864  12.154  1.00  0.00    -0.309 OA
ATOM      2  O3  UNK     1      43.533  20.555  10.464  1.00  0.00    -0.287 OA
ATOM      3  C1  UNK     1      42.163  19.113  11.741  1.00  0.00     0.081 A 
ATOM      4  C2  UNK     1      40.895  18.939  12.291  1.00  0.00     0.095 A 
ATOM      5  C3  UNK     1      40.154  21.025  11.442  1.00  0.00     0.090 A 
ATOM      6  C5  UNK     1      42.444  20.339  10.977  1.00  0.00     0.190 A 
ATOM      7  C6  UNK     1      41.331  21.303  10.860  1.00  0.00     0.094 A 
ATOM      8  C7  UNK     1      43.148  18.137  11.911  1.00  0.00     0.085 A 
ATOM      9  C8  UNK     1      40.603  17.785  13.018  1.00  0.00     0.075 A 
ATOM     10  C9  UNK     1      41.583  16.808  13.192  1.00  0.00     0.071 A 
ATOM     11  C10 UNK     1      42.853  16.984  12.640  1.00  0.00     0.074 A 
ENDROOT
BRANCH   5  12
ATOM     12  C4  UNK     1      39.005  21.946  11.352  1.00  0.00    -0.002 A 
ATOM     13  C12 UNK     1      38.011  21.736  10.393  1.00  0.00     0.017 A 
ATOM     14  C14 UNK     1      36.925  22.607  10.307  1.00  0.00     0.037 A 
ATOM     15  C15 UNK     1      36.829  23.692  11.180  1.00  0.00     0.065 A 
ATOM     16  C13 UNK     1      37.821  23.905  12.137  1.00  0.00     0.037 A 
ATOM     17  C11 UNK     1      38.907  23.034  12.224  1.00  0.00     0.017 A 
BRANCH  15  18
ATOM     18  O5  UNK     1      35.771  24.542  11.095  1.00  0.00    -0.361 OA
ATOM     19  H10 UNK     1      35.546  24.856  11.988  1.00  0.00     0.217 HD
ENDBRANCH  15  18
ENDBRANCH   5  12
BRANCH   8  20
ATOM     20  O2  UNK     1      44.401  18.260  11.393  1.00  0.00    -0.360 OA
ATOM     21  H8  UNK     1      44.625  19.194  11.262  1.00  0.00     0.217 HD
ENDBRANCH   8  20
BRANCH  10  22
ATOM     22  O4  UNK     1      41.300  15.680  13.900  1.00  0.00    -0.361 OA
ATOM     23  H9  UNK     1      41.656  14.910  13.424  1.00  0.00     0.217 HD
ENDBRANCH  10  22
TORSDOF 4
ENDMDL
MODEL 10
REMARK VINA RESULT:      -5.5      3.419      4.323
REMARK  4 active torsions:
REMARK  status: ('A' for Active; 'I' for Inactive)
REMARK    1  A    between atoms: O2_2  and  C7_12 
REMARK    2  A    between atoms: O4_4  and  C9_14 
REMARK    3  A    between atoms: O5_5  and  C15_20 
REMARK    4  A    between atoms: C3_8  and  C4_9 
ROOT
ATOM      1  O1  UNK     1      42.787  23.436  11.487  1.00  0.00    -0.309 OA
ATOM      2  O3  UNK     1      40.205  20.289  11.331  1.00  0.00    -0.287 OA
ATOM      3  C1  UNK     1      42.407  21.084  11.016  1.00  0.00     0.081 A 
ATOM      4  C2  UNK     1      43.236  22.201  11.093  1.00  0.00     0.095 A 
ATOM      5  C3  UNK     1      41.447  23.578  11.815  1.00  0.00     0.090 A 
ATOM      6  C5  UNK     1      40.987  21.227  11.373  1.00  0.00     0.190 A 
ATOM      7  C6  UNK     1      40.552  22.577  11.789  1.00  0.00     0.094 A 
ATOM      8  C7  UNK     1      42.919  19.850  10.609  1.00  0.00     0.085 A 
ATOM      9  C8  UNK     1      44.587  22.091  10.762  1.00  0.00     0.075 A 
ATOM     10  C9  UNK     1      45.104  20.861  10.354  1.00  0.00     0.071 A 
ATOM     11  C10 UNK     1      44.271  19.743  10.277  1.00  0.00     0.074 A 
ENDROOT
BRANCH   5  12
ATOM     12  C4  UNK     1      41.072  24.944  12.231  1.00  0.00    -0.002 A 
ATOM     13  C12 UNK     1      39.763  25.223  12.627  1.00  0.00     0.017 A 
ATOM     14  C14 UNK     1      39.409  26.514  13.019  1.00  0.00     0.037 A 
ATOM     15  C15 UNK     1      40.364  27.531  13.015  1.00  0.00     0.065 A 
ATOM     16  C13 UNK     1      41.673  27.256  12.618  1.00  0.00     0.037 A 
ATOM     17  C11 UNK     1      42.027  25.965  12.227  1.00  0.00     0.017 A 
BRANCH  15  18
ATOM     18  O5  UNK     1      40.019  28.790  13.396  1.00  0.00    -0.361 OA
ATOM     19  H10 UNK     1      40.099  28.859  14.363  1.00  0.00     0.217 HD
ENDBRANCH  15  18
ENDBRANCH   5  12
BRANCH   8  20
ATOM     20  O2  UNK     1      42.151  18.729  10.518  1.00  0.00    -0.360 OA
ATOM     21  H8  UNK     1      42.598  18.054   9.984  1.00  0.00     0.217 HD
ENDBRANCH   8  20
BRANCH  10  22
ATOM     22  O4  UNK     1      46.421  20.751  10.031  1.00  0.00    -0.361 OA
ATOM     23  H9  UNK     1      46.630  19.814   9.870  1.00  0.00     0.217 HD
ENDBRANCH  10  22
TORSDOF 4
ENDMDL
MODEL 11
REMARK VINA RESULT:      -5.5      4.838      8.078
REMARK  4 active torsions:
REMARK  status: ('A' for Active; 'I' for Inactive)
REMARK    1  A    between atoms: O2_2  and  C7_12 
REMARK    2  A    between atoms: O4_4  and  C9_14 
REMARK    3  A    between atoms: O5_5  and  C15_20 
REMARK    4  A    between atoms: C3_8  and  C4_9 
ROOT
ATOM      1  O1  UNK     1      42.536  22.932  12.657  1.00  0.00    -0.309 OA
ATOM      2  O3  UNK     1      43.675  24.964   9.314  1.00  0.00    -0.287 OA
ATOM      3  C1  UNK     1      42.955  25.060  11.563  1.00  0.00     0.081 A 
ATOM      4  C2  UNK     1      42.576  24.303  12.670  1.00  0.00     0.095 A 
ATOM      5  C3  UNK     1      42.880  22.272  11.486  1.00  0.00     0.090 A 
ATOM      6  C5  UNK     1      43.331  24.364  10.322  1.00  0.00     0.190 A 
ATOM      7  C6  UNK     1      43.269  22.888  10.358  1.00  0.00     0.094 A 
ATOM      8  C7  UNK     1      42.978  26.454  11.634  1.00  0.00     0.085 A 
ATOM      9  C8  UNK     1      42.217  24.938  13.859  1.00  0.00     0.075 A 
ATOM     10  C9  UNK     1      42.238  26.331  13.935  1.00  0.00     0.071 A 
ATOM     11  C10 UNK     1      42.618  27.088  12.824  1.00  0.00     0.074 A 
ENDROOT
BRANCH   5  12
ATOM     12  C4  UNK     1      42.809  20.801  11.584  1.00  0.00    -0.002 A 
ATOM     13  C12 UNK     1      43.975  20.050  11.742  1.00  0.00     0.017 A 
ATOM     14  C14 UNK     1      43.907  18.660  11.833  1.00  0.00     0.037 A 
ATOM     15  C15 UNK     1      42.671  18.016  11.766  1.00  0.00     0.065 A 
ATOM     16  C13 UNK     1      41.504  18.763  11.607  1.00  0.00     0.037 A 
ATOM     17  C11 UNK     1      41.572  20.153  11.516  1.00  0.00     0.017 A 
BRANCH  15  18
ATOM     18  O5  UNK     1      42.605  16.660  11.854  1.00  0.00    -0.361 OA
ATOM     19  H10 UNK     1      42.629  16.285  10.957  1.00  0.00     0.217 HD
ENDBRANCH  15  18
ENDBRANCH   5  12
BRANCH   8  20
ATOM     20  O2  UNK     1      43.341  27.238  10.581  1.00  0.00    -0.360 OA
ATOM     21  H8  UNK     1      43.039  28.149  10.716  1.00  0.00     0.217 HD
ENDBRANCH   8  20
BRANCH  10  22
ATOM     22  O4  UNK     1      41.889  26.955  15.094  1.00  0.00    -0.361 OA
ATOM     23  H9  UNK     1      42.296  26.483  15.841  1.00  0.00     0.217 HD
ENDBRANCH  10  22
TORSDOF 4
ENDMDL
MODEL 12
REMARK VINA RESULT:      -5.5      4.957      8.295
REMARK  4 active torsions:
REMARK  status: ('A' for Active; 'I' for Inactive)
REMARK    1  A    between atoms: O2_2  and  C7_12 
REMARK    2  A    between atoms: O4_4  and  C9_14 
REMARK    3  A    between atoms: O5_5  and  C15_20 
REMARK    4  A    between atoms: C3_8  and  C4_9 
ROOT
ATOM      1  O1  UNK     1      44.318  18.509  11.663  1.00  0.00    -0.309 OA
ATOM      2  O3  UNK     1      40.991  20.695  10.795  1.00  0.00    -0.287 OA
ATOM      3  C1  UNK     1      41.941  18.891  11.988  1.00  0.00     0.081 A 
ATOM      4  C2  UNK     1      43.116  18.187  12.242  1.00  0.00     0.095 A 
ATOM      5  C3  UNK     1      44.360  19.578  10.781  1.00  0.00     0.090 A 
ATOM      6  C5  UNK     1      41.983  20.032  11.061  1.00  0.00     0.190 A 
ATOM      7  C6  UNK     1      43.299  20.337  10.462  1.00  0.00     0.094 A 
ATOM      8  C7  UNK     1      40.746  18.518  12.607  1.00  0.00     0.085 A 
ATOM      9  C8  UNK     1      43.104  17.102  13.119  1.00  0.00     0.075 A 
ATOM     10  C9  UNK     1      41.912  16.725  13.740  1.00  0.00     0.071 A 
ATOM     11  C10 UNK     1      40.735  17.432  13.484  1.00  0.00     0.074 A 
ENDROOT
BRANCH   5  12
ATOM     12  C4  UNK     1      45.700  19.841  10.221  1.00  0.00    -0.002 A 
ATOM     13  C12 UNK     1      46.799  19.092  10.648  1.00  0.00     0.017 A 
ATOM     14  C14 UNK     1      48.065  19.341  10.119  1.00  0.00     0.037 A 
ATOM     15  C15 UNK     1      48.237  20.341   9.162  1.00  0.00     0.065 A 
ATOM     16  C13 UNK     1      47.143  21.092   8.734  1.00  0.00     0.037 A 
ATOM     17  C11 UNK     1      45.876  20.843   9.262  1.00  0.00     0.017 A 
BRANCH  15  18
ATOM     18  O5  UNK     1      49.473  20.585   8.647  1.00  0.00    -0.361 OA
ATOM     19  H10 UNK     1      49.407  20.627   7.678  1.00  0.00     0.217 HD
ENDBRANCH  15  18
ENDBRANCH   5  12
BRANCH   8  20
ATOM     20  O2  UNK     1      39.572  19.174  12.393  1.00  0.00    -0.360 OA
ATOM     21  H8  UNK     1      39.594  19.640  11.542  1.00  0.00     0.217 HD
ENDBRANCH   8  20
BRANCH  10  22
ATOM     22  O4  UNK     1      41.897  15.667  14.597  1.00  0.00    -0.361 OA
ATOM     23  H9  UNK     1      42.195  14.872  14.122  1.00  0.00     0.217 HD
ENDBRANCH  10  22
TORSDOF 4
ENDMDL
MODEL 13
REMARK VINA RESULT:      -5.4      3.937      7.030
REMARK  4 active torsions:
REMARK  status: ('A' for Active; 'I' for Inactive)
REMARK    1  A    between atoms: O2_2  and  C7_12 
REMARK    2  A    between atoms: O4_4  and  C9_14 
REMARK    3  A    between atoms: O5_5  and  C15_20 
REMARK    4  A    between atoms: C3_8  and  C4_9 
ROOT
ATOM      1  O1  UNK     1      44.133  20.111  10.253  1.00  0.00    -0.309 OA
ATOM      2  O3  UNK     1      46.302  17.452  12.449  1.00  0.00    -0.287 OA
ATOM      3  C1  UNK     1      46.274  19.064  10.722  1.00  0.00     0.081 A 
ATOM      4  C2  UNK     1      45.475  19.956  10.010  1.00  0.00     0.095 A 
ATOM      5  C3  UNK     1      43.548  19.340  11.245  1.00  0.00     0.090 A 
ATOM      6  C5  UNK     1      45.660  18.251  11.784  1.00  0.00     0.190 A 
ATOM      7  C6  UNK     1      44.213  18.453  12.004  1.00  0.00     0.094 A 
ATOM      8  C7  UNK     1      47.636  18.949  10.433  1.00  0.00     0.085 A 
ATOM      9  C8  UNK     1      46.033  20.740   9.000  1.00  0.00     0.075 A 
ATOM     10  C9  UNK     1      47.393  20.628   8.707  1.00  0.00     0.071 A 
ATOM     11  C10 UNK     1      48.192  19.733   9.422  1.00  0.00     0.074 A 
ENDROOT
BRANCH   5  12
ATOM     12  C4  UNK     1      42.105  19.590  11.427  1.00  0.00    -0.002 A 
ATOM     13  C12 UNK     1      41.415  18.987  12.481  1.00  0.00     0.017 A 
ATOM     14  C14 UNK     1      40.051  19.223  12.651  1.00  0.00     0.037 A 
ATOM     15  C15 UNK     1      39.372  20.063  11.768  1.00  0.00     0.065 A 
ATOM     16  C13 UNK     1      40.058  20.666  10.714  1.00  0.00     0.037 A 
ATOM     17  C11 UNK     1      41.422  20.431  10.543  1.00  0.00     0.017 A 
BRANCH  15  18
ATOM     18  O5  UNK     1      38.041  20.293  11.934  1.00  0.00    -0.361 OA
ATOM     19  H10 UNK     1      37.591  20.161  11.082  1.00  0.00     0.217 HD
ENDBRANCH  15  18
ENDBRANCH   5  12
BRANCH   8  20
ATOM     20  O2  UNK     1      48.459  18.093  11.100  1.00  0.00    -0.360 OA
ATOM     21  H8  UNK     1      48.024  17.757  11.899  1.00  0.00     0.217 HD
ENDBRANCH   8  20
BRANCH  10  22
ATOM     22  O4  UNK     1      47.941  21.392   7.722  1.00  0.00    -0.361 OA
ATOM     23  H9  UNK     1      48.795  21.740   8.031  1.00  0.00     0.217 HD
ENDBRANCH  10  22
TORSDOF 4
ENDMDL
MODEL 14
REMARK VINA RESULT:      -5.4      4.677      8.801
REMARK  4 active torsions:
REMARK  status: ('A' for Active; 'I' for Inactive)
REMARK    1  A    between atoms: O2_2  and  C7_12 
REMARK    2  A    between atoms: O4_4  and  C9_14 
REMARK    3  A    between atoms: O5_5  and  C15_20 
REMARK    4  A    between atoms: C3_8  and  C4_9 
ROOT
ATOM      1  O1  UNK     1      44.816  22.873  10.627  1.00  0.00    -0.309 OA
ATOM      2  O3  UNK     1      41.223  21.324  11.765  1.00  0.00    -0.287 OA
ATOM      3  C1  UNK     1      42.563  23.246  11.454  1.00  0.00     0.081 A 
ATOM      4  C2  UNK     1      43.813  23.709  11.050  1.00  0.00     0.095 A 
ATOM      5  C3  UNK     1      44.574  21.508  10.608  1.00  0.00     0.090 A 
ATOM      6  C5  UNK     1      42.298  21.799  11.427  1.00  0.00     0.190 A 
ATOM      7  C6  UNK     1      43.410  20.942  10.966  1.00  0.00     0.094 A 
ATOM      8  C7  UNK     1      41.579  24.143  11.875  1.00  0.00     0.085 A 
ATOM      9  C8  UNK     1      44.089  25.076  11.065  1.00  0.00     0.075 A 
ATOM     10  C9  UNK     1      43.110  25.977  11.485  1.00  0.00     0.071 A 
ATOM     11  C10 UNK     1      41.857  25.511  11.890  1.00  0.00     0.074 A 
ENDROOT
BRANCH   5  12
ATOM     12  C4  UNK     1      45.715  20.703  10.131  1.00  0.00    -0.002 A 
ATOM     13  C12 UNK     1      46.375  21.051   8.950  1.00  0.00     0.017 A 
ATOM     14  C14 UNK     1      47.453  20.289   8.500  1.00  0.00     0.037 A 
ATOM     15  C15 UNK     1      47.876  19.178   9.229  1.00  0.00     0.065 A 
ATOM     16  C13 UNK     1      47.219  18.827  10.408  1.00  0.00     0.037 A 
ATOM     17  C11 UNK     1      46.141  19.588  10.859  1.00  0.00     0.017 A 
BRANCH  15  18
ATOM     18  O5  UNK     1      48.927  18.435   8.788  1.00  0.00    -0.361 OA
ATOM     19  H10 UNK     1      49.592  18.379   9.496  1.00  0.00     0.217 HD
ENDBRANCH  15  18
ENDBRANCH   5  12
BRANCH   8  20
ATOM     20  O2  UNK     1      40.342  23.741  12.279  1.00  0.00    -0.360 OA
ATOM     21  H8  UNK     1      40.391  22.874  12.710  1.00  0.00     0.217 HD
ENDBRANCH   8  20
BRANCH  10  22
ATOM     22  O4  UNK     1      43.375  27.312  11.500  1.00  0.00    -0.361 OA
ATOM     23  H9  UNK     1      42.628  27.787  11.096  1.00  0.00     0.217 HD
ENDBRANCH  10  22
TORSDOF 4
ENDMDL
MODEL 15
REMARK VINA RESULT:      -5.4      3.635      8.100
REMARK  4 active torsions:
REMARK  status: ('A' for Active; 'I' for Inactive)
REMARK    1  A    between atoms: O2_2  and  C7_12 
REMARK    2  A    between atoms: O4_4  and  C9_14 
REMARK    3  A    between atoms: O5_5  and  C15_20 
REMARK    4  A    between atoms: C3_8  and  C4_9 
ROOT
ATOM      1  O1  UNK     1      43.405  20.510  10.576  1.00  0.00    -0.309 OA
ATOM      2  O3  UNK     1      42.528  17.167  12.733  1.00  0.00    -0.287 OA
ATOM      3  C1  UNK     1      41.771  19.207  11.813  1.00  0.00     0.081 A 
ATOM      4  C2  UNK     1      42.137  20.326  11.067  1.00  0.00     0.095 A 
ATOM      5  C3  UNK     1      44.363  19.544  10.841  1.00  0.00     0.090 A 
ATOM      6  C5  UNK     1      42.782  18.174  12.088  1.00  0.00     0.190 A 
ATOM      7  C6  UNK     1      44.131  18.421  11.540  1.00  0.00     0.094 A 
ATOM      8  C7  UNK     1      40.464  19.071  12.287  1.00  0.00     0.085 A 
ATOM      9  C8  UNK     1      41.197  21.318  10.790  1.00  0.00     0.075 A 
ATOM     10  C9  UNK     1      39.891  21.188  11.262  1.00  0.00     0.071 A 
ATOM     11  C10 UNK     1      39.525  20.066  12.010  1.00  0.00     0.074 A 
ENDROOT
BRANCH   5  12
ATOM     12  C4  UNK     1      45.689  19.839  10.262  1.00  0.00    -0.002 A 
ATOM     13  C12 UNK     1      45.830  20.851   9.310  1.00  0.00     0.017 A 
ATOM     14  C14 UNK     1      47.082  21.128   8.763  1.00  0.00     0.037 A 
ATOM     15  C15 UNK     1      48.198  20.395   9.166  1.00  0.00     0.065 A 
ATOM     16  C13 UNK     1      48.061  19.383  10.116  1.00  0.00     0.037 A 
ATOM     17  C11 UNK     1      46.809  19.105  10.664  1.00  0.00     0.017 A 
BRANCH  15  18
ATOM     18  O5  UNK     1      49.420  20.666   8.631  1.00  0.00    -0.361 OA
ATOM     19  H10 UNK     1      50.108  20.368   9.251  1.00  0.00     0.217 HD
ENDBRANCH  15  18
ENDBRANCH   5  12
BRANCH   8  20
ATOM     20  O2  UNK     1      40.056  17.998  13.019  1.00  0.00    -0.360 OA
ATOM     21  H8  UNK     1      39.209  17.662  12.686  1.00  0.00     0.217 HD
ENDBRANCH   8  20
BRANCH  10  22
ATOM     22  O4  UNK     1      38.971  22.154  10.994  1.00  0.00    -0.361 OA
ATOM     23  H9  UNK     1      38.141  21.936  11.452  1.00  0.00     0.217 HD
ENDBRANCH  10  22
TORSDOF 4
ENDMDL
MODEL 16
REMARK VINA RESULT:      -5.4      3.098      7.699
REMARK  4 active torsions:
REMARK  status: ('A' for Active; 'I' for Inactive)
REMARK    1  A    between atoms: O2_2  and  C7_12 
REMARK    2  A    between atoms: O4_4  and  C9_14 
REMARK    3  A    between atoms: O5_5  and  C15_20 
REMARK    4  A    between atoms: C3_8  and  C4_9 
ROOT
ATOM      1  O1  UNK     1      42.580  20.304  10.476  1.00  0.00    -0.309 OA
ATOM      2  O3  UNK     1      41.421  18.456  13.917  1.00  0.00    -0.287 OA
ATOM      3  C1  UNK     1      40.803  19.743  12.034  1.00  0.00     0.081 A 
ATOM      4  C2  UNK     1      41.266  20.351  10.870  1.00  0.00     0.095 A 
ATOM      5  C3  UNK     1      43.486  19.626  11.279  1.00  0.00     0.090 A 
ATOM      6  C5  UNK     1      41.759  19.015  12.883  1.00  0.00     0.190 A 
ATOM      7  C6  UNK     1      43.161  18.995  12.418  1.00  0.00     0.094 A 
ATOM      8  C7  UNK     1      39.454  19.823  12.385  1.00  0.00     0.085 A 
ATOM      9  C8  UNK     1      40.381  21.046  10.046  1.00  0.00     0.075 A 
ATOM     10  C9  UNK     1      39.032  21.130  10.392  1.00  0.00     0.071 A 
ATOM     11  C10 UNK     1      38.569  20.520  11.560  1.00  0.00     0.074 A 
ENDROOT
BRANCH   5  12
ATOM     12  C4  UNK     1      44.868  19.632  10.760  1.00  0.00    -0.002 A 
ATOM     13  C12 UNK     1      45.817  18.750  11.281  1.00  0.00     0.017 A 
ATOM     14  C14 UNK     1      47.123  18.757  10.791  1.00  0.00     0.037 A 
ATOM     15  C15 UNK     1      47.484  19.646   9.778  1.00  0.00     0.065 A 
ATOM     16  C13 UNK     1      46.539  20.528   9.256  1.00  0.00     0.037 A 
ATOM     17  C11 UNK     1      45.233  20.522   9.745  1.00  0.00     0.017 A 
BRANCH  15  18
ATOM     18  O5  UNK     1      48.758  19.652   9.301  1.00  0.00    -0.361 OA
ATOM     19  H10 UNK     1      49.112  18.746   9.337  1.00  0.00     0.217 HD
ENDBRANCH  15  18
ENDBRANCH   5  12
BRANCH   8  20
ATOM     20  O2  UNK     1      38.952  19.246  13.512  1.00  0.00    -0.360 OA
ATOM     21  H8  UNK     1      38.741  18.313  13.350  1.00  0.00     0.217 HD
ENDBRANCH   8  20
BRANCH  10  22
ATOM     22  O4  UNK     1      38.164  21.807   9.590  1.00  0.00    -0.361 OA
ATOM     23  H9  UNK     1      38.209  22.754   9.806  1.00  0.00     0.217 HD
ENDBRANCH  10  22
TORSDOF 4
ENDMDL
MODEL 17
REMARK VINA RESULT:      -5.4      3.627      5.086
REMARK  4 active torsions:
REMARK  status: ('A' for Active; 'I' for Inactive)
REMARK    1  A    between atoms: O2_2  and  C7_12 
REMARK    2  A    between atoms: O4_4  and  C9_14 
REMARK    3  A    between atoms: O5_5  and  C15_20 
REMARK    4  A    between atoms: C3_8  and  C4_9 
ROOT
ATOM      1  O1  UNK     1      41.595  23.305  11.662  1.00  0.00    -0.309 OA
ATOM      2  O3  UNK     1      45.612  23.961  11.469  1.00  0.00    -0.287 OA
ATOM      3  C1  UNK     1      43.821  22.440  11.219  1.00  0.00     0.081 A 
ATOM      4  C2  UNK     1      42.439  22.284  11.303  1.00  0.00     0.095 A 
ATOM      5  C3  UNK     1      42.146  24.542  11.961  1.00  0.00     0.090 A 
ATOM      6  C5  UNK     1      44.408  23.753  11.525  1.00  0.00     0.190 A 
ATOM      7  C6  UNK     1      43.459  24.818  11.909  1.00  0.00     0.094 A 
ATOM      8  C7  UNK     1      44.632  21.365  10.847  1.00  0.00     0.085 A 
ATOM      9  C8  UNK     1      41.857  21.050  11.015  1.00  0.00     0.075 A 
ATOM     10  C9  UNK     1      42.663  19.973  10.644  1.00  0.00     0.071 A 
ATOM     11  C10 UNK     1      44.048  20.130  10.560  1.00  0.00     0.074 A 
ENDROOT
BRANCH   5  12
ATOM     12  C4  UNK     1      41.150  25.568  12.329  1.00  0.00    -0.002 A 
ATOM     13  C12 UNK     1      39.836  25.197  12.624  1.00  0.00     0.017 A 
ATOM     14  C14 UNK     1      38.896  26.167  12.970  1.00  0.00     0.037 A 
ATOM     15  C15 UNK     1      39.265  27.511  13.023  1.00  0.00     0.065 A 
ATOM     16  C13 UNK     1      40.576  27.885  12.727  1.00  0.00     0.037 A 
ATOM     17  C11 UNK     1      41.518  26.916  12.381  1.00  0.00     0.017 A 
BRANCH  15  18
ATOM     18  O5  UNK     1      38.347  28.457  13.360  1.00  0.00    -0.361 OA
ATOM     19  H10 UNK     1      37.465  28.047  13.375  1.00  0.00     0.217 HD
ENDBRANCH  15  18
ENDBRANCH   5  12
BRANCH   8  20
ATOM     20  O2  UNK     1      45.987  21.466  10.749  1.00  0.00    -0.360 OA
ATOM     21  H8  UNK     1      46.281  22.350  11.016  1.00  0.00     0.217 HD
ENDBRANCH   8  20
BRANCH  10  22
ATOM     22  O4  UNK     1      42.098  18.766  10.362  1.00  0.00    -0.361 OA
ATOM     23  H9  UNK     1      41.183  18.761  10.693  1.00  0.00     0.217 HD
ENDBRANCH  10  22
TORSDOF 4
ENDMDL
