MODEL 1
REMARK VINA RESULT:      -7.9      0.000      0.000
REMARK  4 active torsions:
REMARK  status: ('A' for Active; 'I' for Inactive)
REMARK    1  A    between atoms: O2_2  and  C7_12 
REMARK    2  A    between atoms: O4_4  and  C9_14 
REMARK    3  A    between atoms: O5_5  and  C15_20 
REMARK    4  A    between atoms: C3_8  and  C4_9 
ROOT
ATOM      1  O1  UNK     1      39.726  15.563  -0.074  1.00  0.00    -0.309 OA
ATOM      2  O3  UNK     1      41.150  16.563  -3.758  1.00  0.00    -0.287 OA
ATOM      3  C1  UNK     1      40.005  17.243  -1.806  1.00  0.00     0.081 A 
ATOM      4  C2  UNK     1      39.545  16.835  -0.556  1.00  0.00     0.095 A 
ATOM      5  C3  UNK     1      40.389  14.643  -0.872  1.00  0.00     0.090 A 
ATOM      6  C5  UNK     1      40.717  16.272  -2.652  1.00  0.00     0.190 A 
ATOM      7  C6  UNK     1      40.884  14.916  -2.090  1.00  0.00     0.094 A 
ATOM      8  C7  UNK     1      39.793  18.551  -2.245  1.00  0.00     0.085 A 
ATOM      9  C8  UNK     1      38.869  17.736   0.267  1.00  0.00     0.075 A 
ATOM     10  C9  UNK     1      38.654  19.045  -0.167  1.00  0.00     0.071 A 
ATOM     11  C10 UNK     1      39.115  19.452  -1.421  1.00  0.00     0.074 A 
ENDROOT
BRANCH   5  12
ATOM     12  C4  UNK     1      40.533  13.309  -0.256  1.00  0.00    -0.002 A 
ATOM     13  C12 UNK     1      40.148  13.103   1.070  1.00  0.00     0.017 A 
ATOM     14  C14 UNK     1      40.285  11.843   1.652  1.00  0.00     0.037 A 
ATOM     15  C15 UNK     1      40.809  10.784   0.909  1.00  0.00     0.065 A 
ATOM     16  C13 UNK     1      41.195  10.987  -0.415  1.00  0.00     0.037 A 
ATOM     17  C11 UNK     1      41.058  12.247  -0.998  1.00  0.00     0.017 A 
BRANCH  15  18
ATOM     18  O5  UNK     1      40.943   9.555   1.478  1.00  0.00    -0.361 OA
ATOM     19  H10 UNK     1      40.131   9.346   1.971  1.00  0.00     0.217 HD
ENDBRANCH  15  18
ENDBRANCH   5  12
BRANCH   8  20
ATOM     20  O2  UNK     1      40.223  18.999  -3.457  1.00  0.00    -0.360 OA
ATOM     21  H8  UNK     1      40.840  18.364  -3.854  1.00  0.00     0.217 HD
ENDBRANCH   8  20
BRANCH  10  22
ATOM     22  O4  UNK     1      37.994  19.927   0.633  1.00  0.00    -0.361 OA
ATOM     23  H9  UNK     1      38.144  19.683   1.563  1.00  0.00     0.217 HD
ENDBRANCH  10  22
TORSDOF 4
ENDMDL
MODEL 2
REMARK VINA RESULT:      -7.1      0.914      1.473
REMARK  4 active torsions:
REMARK  status: ('A' for Active; 'I' for Inactive)
REMARK    1  A    between atoms: O2_2  and  C7_12 
REMARK    2  A    between atoms: O4_4  and  C9_14 
REMARK    3  A    between atoms: O5_5  and  C15_20 
REMARK    4  A    between atoms: C3_8  and  C4_9 
ROOT
ATOM      1  O1  UNK     1      39.736  16.117  -0.299  1.00  0.00    -0.309 OA
ATOM      2  O3  UNK     1      40.882  17.823  -3.817  1.00  0.00    -0.287 OA
ATOM      3  C1  UNK     1      39.867  18.096  -1.701  1.00  0.00     0.081 A 
ATOM      4  C2  UNK     1      39.503  17.450  -0.521  1.00  0.00     0.095 A 
ATOM      5  C3  UNK     1      40.354  15.379  -1.298  1.00  0.00     0.090 A 
ATOM      6  C5  UNK     1      40.533  17.320  -2.759  1.00  0.00     0.190 A 
ATOM      7  C6  UNK     1      40.759  15.888  -2.473  1.00  0.00     0.094 A 
ATOM      8  C7  UNK     1      39.606  19.457  -1.872  1.00  0.00     0.085 A 
ATOM      9  C8  UNK     1      38.873  18.164   0.498  1.00  0.00     0.075 A 
ATOM     10  C9  UNK     1      38.609  19.524   0.333  1.00  0.00     0.071 A 
ATOM     11  C10 UNK     1      38.974  20.169  -0.851  1.00  0.00     0.074 A 
ENDROOT
BRANCH   5  12
ATOM     12  C4  UNK     1      40.562  13.959  -0.954  1.00  0.00    -0.002 A 
ATOM     13  C12 UNK     1      41.427  13.171  -1.715  1.00  0.00     0.017 A 
ATOM     14  C14 UNK     1      41.622  11.829  -1.390  1.00  0.00     0.037 A 
ATOM     15  C15 UNK     1      40.952  11.270  -0.301  1.00  0.00     0.065 A 
ATOM     16  C13 UNK     1      40.086  12.054   0.461  1.00  0.00     0.037 A 
ATOM     17  C11 UNK     1      39.891  13.396   0.136  1.00  0.00     0.017 A 
BRANCH  15  18
ATOM     18  O5  UNK     1      41.142   9.960   0.015  1.00  0.00    -0.361 OA
ATOM     19  H10 UNK     1      41.998   9.670  -0.345  1.00  0.00     0.217 HD
ENDBRANCH  15  18
ENDBRANCH   5  12
BRANCH   8  20
ATOM     20  O2  UNK     1      39.943  20.134  -3.005  1.00  0.00    -0.360 OA
ATOM     21  H8  UNK     1      39.181  20.628  -3.344  1.00  0.00     0.217 HD
ENDBRANCH   8  20
BRANCH  10  22
ATOM     22  O4  UNK     1      37.994  20.223   1.326  1.00  0.00    -0.361 OA
ATOM     23  H9  UNK     1      37.399  20.882   0.926  1.00  0.00     0.217 HD
ENDBRANCH  10  22
TORSDOF 4
ENDMDL
MODEL 3
REMARK VINA RESULT:      -6.8      1.248      2.995
REMARK  4 active torsions:
REMARK  status: ('A' for Active; 'I' for Inactive)
REMARK    1  A    between atoms: O2_2  and  C7_12 
REMARK    2  A    between atoms: O4_4  and  C9_14 
REMARK    3  A    between atoms: O5_5  and  C15_20 
REMARK    4  A    between atoms: C3_8  and  C4_9 
ROOT
ATOM      1  O1  UNK     1      40.598  15.175  -1.895  1.00  0.00    -0.309 OA
ATOM      2  O3  UNK     1      38.878  18.080   0.386  1.00  0.00    -0.287 OA
ATOM      3  C1  UNK     1      39.861  17.479  -1.677  1.00  0.00     0.081 A 
ATOM      4  C2  UNK     1      40.439  16.440  -2.403  1.00  0.00     0.095 A 
ATOM      5  C3  UNK     1      40.170  14.925  -0.600  1.00  0.00     0.090 A 
ATOM      6  C5  UNK     1      39.397  17.215  -0.306  1.00  0.00     0.190 A 
ATOM      7  C6  UNK     1      39.592  15.839   0.195  1.00  0.00     0.094 A 
ATOM      8  C7  UNK     1      39.724  18.748  -2.245  1.00  0.00     0.085 A 
ATOM      9  C8  UNK     1      40.886  16.663  -3.705  1.00  0.00     0.075 A 
ATOM     10  C9  UNK     1      40.752  17.929  -4.277  1.00  0.00     0.071 A 
ATOM     11  C10 UNK     1      40.172  18.969  -3.548  1.00  0.00     0.074 A 
ENDROOT
BRANCH   5  12
ATOM     12  C4  UNK     1      40.382  13.533  -0.157  1.00  0.00    -0.002 A 
ATOM     13  C12 UNK     1      40.796  12.561  -1.071  1.00  0.00     0.017 A 
ATOM     14  C14 UNK     1      40.996  11.245  -0.651  1.00  0.00     0.037 A 
ATOM     15  C15 UNK     1      40.783  10.898   0.683  1.00  0.00     0.065 A 
ATOM     16  C13 UNK     1      40.369  11.866   1.597  1.00  0.00     0.037 A 
ATOM     17  C11 UNK     1      40.169  13.182   1.179  1.00  0.00     0.017 A 
BRANCH  15  18
ATOM     18  O5  UNK     1      40.977   9.615   1.091  1.00  0.00    -0.361 OA
ATOM     19  H10 UNK     1      40.140   9.267   1.446  1.00  0.00     0.217 HD
ENDBRANCH  15  18
ENDBRANCH   5  12
BRANCH   8  20
ATOM     20  O2  UNK     1      39.166  19.795  -1.578  1.00  0.00    -0.360 OA
ATOM     21  H8  UNK     1      38.856  19.514  -0.703  1.00  0.00     0.217 HD
ENDBRANCH   8  20
BRANCH  10  22
ATOM     22  O4  UNK     1      41.186  18.150  -5.549  1.00  0.00    -0.361 OA
ATOM     23  H9  UNK     1      40.467  18.558  -6.062  1.00  0.00     0.217 HD
ENDBRANCH  10  22
TORSDOF 4
ENDMDL
MODEL 4
REMARK VINA RESULT:      -6.7      1.480      6.647
REMARK  4 active torsions:
REMARK  status: ('A' for Active; 'I' for Inactive)
REMARK    1  A    between atoms: O2_2  and  C7_12 
REMARK    2  A    between atoms: O4_4  and  C9_14 
REMARK    3  A    between atoms: O5_5  and  C15_20 
REMARK    4  A    between atoms: C3_8  and  C4_9 
ROOT
ATOM      1  O1  UNK     1      39.633  14.628   0.110  1.00  0.00    -0.309 OA
ATOM      2  O3  UNK     1      42.239  13.269  -2.713  1.00  0.00    -0.287 OA
ATOM      3  C1  UNK     1      40.906  12.781  -0.823  1.00  0.00     0.081 A 
ATOM      4  C2  UNK     1      40.019  13.311   0.111  1.00  0.00     0.095 A 
ATOM      5  C3  UNK     1      40.159  15.468  -0.860  1.00  0.00     0.090 A 
ATOM      6  C5  UNK     1      41.458  13.667  -1.860  1.00  0.00     0.190 A 
ATOM      7  C6  UNK     1      41.014  15.076  -1.818  1.00  0.00     0.094 A 
ATOM      8  C7  UNK     1      41.262  11.432  -0.774  1.00  0.00     0.085 A 
ATOM      9  C8  UNK     1      39.480  12.492   1.104  1.00  0.00     0.075 A 
ATOM     10  C9  UNK     1      39.832  11.143   1.157  1.00  0.00     0.071 A 
ATOM     11  C10 UNK     1      40.723  10.614   0.220  1.00  0.00     0.074 A 
ENDROOT
BRANCH   5  12
ATOM     12  C4  UNK     1      39.674  16.860  -0.774  1.00  0.00    -0.002 A 
ATOM     13  C12 UNK     1      40.014  17.785  -1.764  1.00  0.00     0.017 A 
ATOM     14  C14 UNK     1      39.557  19.100  -1.681  1.00  0.00     0.037 A 
ATOM     15  C15 UNK     1      38.758  19.495  -0.608  1.00  0.00     0.065 A 
ATOM     16  C13 UNK     1      38.417  18.574   0.382  1.00  0.00     0.037 A 
ATOM     17  C11 UNK     1      38.874  17.259   0.300  1.00  0.00     0.017 A 
BRANCH  15  18
ATOM     18  O5  UNK     1      38.313  20.778  -0.528  1.00  0.00    -0.361 OA
ATOM     19  H10 UNK     1      38.978  21.313  -0.061  1.00  0.00     0.217 HD
ENDBRANCH  15  18
ENDBRANCH   5  12
BRANCH   8  20
ATOM     20  O2  UNK     1      42.124  10.867  -1.664  1.00  0.00    -0.360 OA
ATOM     21  H8  UNK     1      41.819  11.014  -2.573  1.00  0.00     0.217 HD
ENDBRANCH   8  20
BRANCH  10  22
ATOM     22  O4  UNK     1      39.308  10.341   2.124  1.00  0.00    -0.361 OA
ATOM     23  H9  UNK     1      38.543  10.789   2.525  1.00  0.00     0.217 HD
ENDBRANCH  10  22
TORSDOF 4
ENDMDL
MODEL 5
REMARK VINA RESULT:      -5.6      9.607     11.858
REMARK  4 active torsions:
REMARK  status: ('A' for Active; 'I' for Inactive)
REMARK    1  A    between atoms: O2_2  and  C7_12 
REMARK    2  A    between atoms: O4_4  and  C9_14 
REMARK    3  A    between atoms: O5_5  and  C15_20 
REMARK    4  A    between atoms: C3_8  and  C4_9 
ROOT
ATOM      1  O1  UNK     1      45.842  11.301  -7.722  1.00  0.00    -0.309 OA
ATOM      2  O3  UNK     1      48.207   8.395  -9.321  1.00  0.00    -0.287 OA
ATOM      3  C1  UNK     1      46.083   9.426  -9.247  1.00  0.00     0.081 A 
ATOM      4  C2  UNK     1      45.330  10.442  -8.661  1.00  0.00     0.095 A 
ATOM      5  C3  UNK     1      47.164  11.144  -7.334  1.00  0.00     0.090 A 
ATOM      6  C5  UNK     1      47.489   9.262  -8.846  1.00  0.00     0.190 A 
ATOM      7  C6  UNK     1      47.991  10.210  -7.829  1.00  0.00     0.094 A 
ATOM      8  C7  UNK     1      45.510   8.581 -10.200  1.00  0.00     0.085 A 
ATOM      9  C8  UNK     1      43.995  10.619  -9.026  1.00  0.00     0.075 A 
ATOM     10  C9  UNK     1      43.418   9.778  -9.977  1.00  0.00     0.071 A 
ATOM     11  C10 UNK     1      44.174   8.760 -10.563  1.00  0.00     0.074 A 
ENDROOT
BRANCH   5  12
ATOM     12  C4  UNK     1      47.612  12.122  -6.324  1.00  0.00    -0.002 A 
ATOM     13  C12 UNK     1      48.117  13.362  -6.723  1.00  0.00     0.017 A 
ATOM     14  C14 UNK     1      48.542  14.286  -5.768  1.00  0.00     0.037 A 
ATOM     15  C15 UNK     1      48.463  13.973  -4.411  1.00  0.00     0.065 A 
ATOM     16  C13 UNK     1      47.960  12.736  -4.009  1.00  0.00     0.037 A 
ATOM     17  C11 UNK     1      47.535  11.812  -4.963  1.00  0.00     0.017 A 
BRANCH  15  18
ATOM     18  O5  UNK     1      48.878  14.875  -3.480  1.00  0.00    -0.361 OA
ATOM     19  H10 UNK     1      48.632  15.769  -3.776  1.00  0.00     0.217 HD
ENDBRANCH  15  18
ENDBRANCH   5  12
BRANCH   8  20
ATOM     20  O2  UNK     1      46.203   7.575 -10.801  1.00  0.00    -0.360 OA
ATOM     21  H8  UNK     1      47.113   7.543 -10.469  1.00  0.00     0.217 HD
ENDBRANCH   8  20
BRANCH  10  22
ATOM     22  O4  UNK     1      42.116   9.949 -10.335  1.00  0.00    -0.361 OA
ATOM     23  H9  UNK     1      41.993  10.859 -10.655  1.00  0.00     0.217 HD
ENDBRANCH  10  22
TORSDOF 4
ENDMDL
MODEL 6
REMARK VINA RESULT:      -5.6      9.586     11.836
REMARK  4 active torsions:
REMARK  status: ('A' for Active; 'I' for Inactive)
REMARK    1  A    between atoms: O2_2  and  C7_12 
REMARK    2  A    between atoms: O4_4  and  C9_14 
REMARK    3  A    between atoms: O5_5  and  C15_20 
REMARK    4  A    between atoms: C3_8  and  C4_9 
ROOT
ATOM      1  O1  UNK     1      45.847  11.313  -7.723  1.00  0.00    -0.309 OA
ATOM      2  O3  UNK     1      48.273   8.540  -9.462  1.00  0.00    -0.287 OA
ATOM      3  C1  UNK     1      46.116   9.493  -9.308  1.00  0.00     0.081 A 
ATOM      4  C2  UNK     1      45.343  10.464  -8.675  1.00  0.00     0.095 A 
ATOM      5  C3  UNK     1      47.182  11.192  -7.370  1.00  0.00     0.090 A 
ATOM      6  C5  UNK     1      47.536   9.368  -8.945  1.00  0.00     0.190 A 
ATOM      7  C6  UNK     1      48.030  10.303  -7.913  1.00  0.00     0.094 A 
ATOM      8  C7  UNK     1      45.550   8.656 -10.272  1.00  0.00     0.085 A 
ATOM      9  C8  UNK     1      43.994  10.605  -9.003  1.00  0.00     0.075 A 
ATOM     10  C9  UNK     1      43.424   9.771  -9.965  1.00  0.00     0.071 A 
ATOM     11  C10 UNK     1      44.200   8.797 -10.598  1.00  0.00     0.074 A 
ENDROOT
BRANCH   5  12
ATOM     12  C4  UNK     1      47.621  12.157  -6.342  1.00  0.00    -0.002 A 
ATOM     13  C12 UNK     1      47.516  11.835  -4.987  1.00  0.00     0.017 A 
ATOM     14  C14 UNK     1      47.930  12.747  -4.017  1.00  0.00     0.037 A 
ATOM     15  C15 UNK     1      48.450  13.984  -4.398  1.00  0.00     0.065 A 
ATOM     16  C13 UNK     1      48.555  14.309  -5.750  1.00  0.00     0.037 A 
ATOM     17  C11 UNK     1      48.142  13.397  -6.721  1.00  0.00     0.017 A 
BRANCH  15  18
ATOM     18  O5  UNK     1      48.853  14.874  -3.450  1.00  0.00    -0.361 OA
ATOM     19  H10 UNK     1      48.116  15.477  -3.252  1.00  0.00     0.217 HD
ENDBRANCH  15  18
ENDBRANCH   5  12
BRANCH   8  20
ATOM     20  O2  UNK     1      46.263   7.693 -10.919  1.00  0.00    -0.360 OA
ATOM     21  H8  UNK     1      46.996   8.089 -11.416  1.00  0.00     0.217 HD
ENDBRANCH   8  20
BRANCH  10  22
ATOM     22  O4  UNK     1      42.108   9.905 -10.288  1.00  0.00    -0.361 OA
ATOM     23  H9  UNK     1      42.028  10.522 -11.037  1.00  0.00     0.217 HD
ENDBRANCH  10  22
TORSDOF 4
ENDMDL
MODEL 7
REMARK VINA RESULT:      -5.5     10.231     13.119
REMARK  4 active torsions:
REMARK  status: ('A' for Active; 'I' for Inactive)
REMARK    1  A    between atoms: O2_2  and  C7_12 
REMARK    2  A    between atoms: O4_4  and  C9_14 
REMARK    3  A    between atoms: O5_5  and  C15_20 
REMARK    4  A    between atoms: C3_8  and  C4_9 
ROOT
ATOM      1  O1  UNK     1      48.418   9.750  -6.967  1.00  0.00    -0.309 OA
ATOM      2  O3  UNK     1      46.106  10.082 -10.305  1.00  0.00    -0.287 OA
ATOM      3  C1  UNK     1      47.523   8.731  -8.981  1.00  0.00     0.081 A 
ATOM      4  C2  UNK     1      48.295   8.685  -7.823  1.00  0.00     0.095 A 
ATOM      5  C3  UNK     1      47.750  10.925  -7.275  1.00  0.00     0.090 A 
ATOM      6  C5  UNK     1      46.804   9.973  -9.307  1.00  0.00     0.190 A 
ATOM      7  C6  UNK     1      46.970  11.091  -8.355  1.00  0.00     0.094 A 
ATOM      8  C7  UNK     1      47.433   7.615  -9.816  1.00  0.00     0.085 A 
ATOM      9  C8  UNK     1      48.985   7.519  -7.491  1.00  0.00     0.075 A 
ATOM     10  C9  UNK     1      48.899   6.401  -8.321  1.00  0.00     0.071 A 
ATOM     11  C10 UNK     1      48.125   6.450  -9.483  1.00  0.00     0.074 A 
ENDROOT
BRANCH   5  12
ATOM     12  C4  UNK     1      47.946  12.003  -6.286  1.00  0.00    -0.002 A 
ATOM     13  C12 UNK     1      48.328  13.280  -6.704  1.00  0.00     0.017 A 
ATOM     14  C14 UNK     1      48.514  14.297  -5.769  1.00  0.00     0.037 A 
ATOM     15  C15 UNK     1      48.318  14.043  -4.412  1.00  0.00     0.065 A 
ATOM     16  C13 UNK     1      47.936  12.769  -3.990  1.00  0.00     0.037 A 
ATOM     17  C11 UNK     1      47.750  11.751  -4.925  1.00  0.00     0.017 A 
BRANCH  15  18
ATOM     18  O5  UNK     1      48.500  15.036  -3.500  1.00  0.00    -0.361 OA
ATOM     19  H10 UNK     1      47.632  15.316  -3.161  1.00  0.00     0.217 HD
ENDBRANCH  15  18
ENDBRANCH   5  12
BRANCH   8  20
ATOM     20  O2  UNK     1      46.692   7.609 -10.959  1.00  0.00    -0.360 OA
ATOM     21  H8  UNK     1      47.082   8.202 -11.620  1.00  0.00     0.217 HD
ENDBRANCH   8  20
BRANCH  10  22
ATOM     22  O4  UNK     1      49.571   5.262  -8.000  1.00  0.00    -0.361 OA
ATOM     23  H9  UNK     1      49.376   5.030  -7.076  1.00  0.00     0.217 HD
ENDBRANCH  10  22
TORSDOF 4
ENDMDL
MODEL 8
REMARK VINA RESULT:      -5.5     10.230     13.097
REMARK  4 active torsions:
REMARK  status: ('A' for Active; 'I' for Inactive)
REMARK    1  A    between atoms: O2_2  and  C7_12 
REMARK    2  A    between atoms: O4_4  and  C9_14 
REMARK    3  A    between atoms: O5_5  and  C15_20 
REMARK    4  A    between atoms: C3_8  and  C4_9 
ROOT
ATOM      1  O1  UNK     1      48.420   9.748  -6.964  1.00  0.00    -0.309 OA
ATOM      2  O3  UNK     1      46.102  10.078 -10.298  1.00  0.00    -0.287 OA
ATOM      3  C1  UNK     1      47.522   8.728  -8.978  1.00  0.00     0.081 A 
ATOM      4  C2  UNK     1      48.297   8.682  -7.821  1.00  0.00     0.095 A 
ATOM      5  C3  UNK     1      47.751  10.922  -7.271  1.00  0.00     0.090 A 
ATOM      6  C5  UNK     1      46.801   9.969  -9.301  1.00  0.00     0.190 A 
ATOM      7  C6  UNK     1      46.969  11.087  -8.350  1.00  0.00     0.094 A 
ATOM      8  C7  UNK     1      47.431   7.612  -9.813  1.00  0.00     0.085 A 
ATOM      9  C8  UNK     1      48.988   7.517  -7.490  1.00  0.00     0.075 A 
ATOM     10  C9  UNK     1      48.902   6.400  -8.321  1.00  0.00     0.071 A 
ATOM     11  C10 UNK     1      48.125   6.447  -9.480  1.00  0.00     0.074 A 
ENDROOT
BRANCH   5  12
ATOM     12  C4  UNK     1      47.948  12.000  -6.282  1.00  0.00    -0.002 A 
ATOM     13  C12 UNK     1      47.750  11.751  -4.922  1.00  0.00     0.017 A 
ATOM     14  C14 UNK     1      47.936  12.770  -3.989  1.00  0.00     0.037 A 
ATOM     15  C15 UNK     1      48.320  14.043  -4.411  1.00  0.00     0.065 A 
ATOM     16  C13 UNK     1      48.517  14.296  -5.768  1.00  0.00     0.037 A 
ATOM     17  C11 UNK     1      48.332  13.277  -6.703  1.00  0.00     0.017 A 
BRANCH  15  18
ATOM     18  O5  UNK     1      48.500  15.037  -3.500  1.00  0.00    -0.361 OA
ATOM     19  H10 UNK     1      48.279  15.888  -3.916  1.00  0.00     0.217 HD
ENDBRANCH  15  18
ENDBRANCH   5  12
BRANCH   8  20
ATOM     20  O2  UNK     1      46.688   7.606 -10.953  1.00  0.00    -0.360 OA
ATOM     21  H8  UNK     1      46.370   6.710 -11.147  1.00  0.00     0.217 HD
ENDBRANCH   8  20
BRANCH  10  22
ATOM     22  O4  UNK     1      49.575   5.260  -8.001  1.00  0.00    -0.361 OA
ATOM     23  H9  UNK     1      50.523   5.394  -8.175  1.00  0.00     0.217 HD
ENDBRANCH  10  22
TORSDOF 4
ENDMDL
MODEL 9
REMARK VINA RESULT:      -5.4      9.820     11.479
REMARK  4 active torsions:
REMARK  status: ('A' for Active; 'I' for Inactive)
REMARK    1  A    between atoms: O2_2  and  C7_12 
REMARK    2  A    between atoms: O4_4  and  C9_14 
REMARK    3  A    between atoms: O5_5  and  C15_20 
REMARK    4  A    between atoms: C3_8  and  C4_9 
ROOT
ATOM      1  O1  UNK     1      47.201  12.025  -7.029  1.00  0.00    -0.309 OA
ATOM      2  O3  UNK     1      50.546  12.906  -9.181  1.00  0.00    -0.287 OA
ATOM      3  C1  UNK     1      49.316  13.208  -7.186  1.00  0.00     0.081 A 
ATOM      4  C2  UNK     1      48.151  12.864  -6.504  1.00  0.00     0.095 A 
ATOM      5  C3  UNK     1      47.408  11.504  -8.297  1.00  0.00     0.090 A 
ATOM      6  C5  UNK     1      49.545  12.649  -8.528  1.00  0.00     0.190 A 
ATOM      7  C6  UNK     1      48.492  11.754  -9.049  1.00  0.00     0.094 A 
ATOM      8  C7  UNK     1      50.250  14.067  -6.602  1.00  0.00     0.085 A 
ATOM      9  C8  UNK     1      47.911  13.379  -5.230  1.00  0.00     0.075 A 
ATOM     10  C9  UNK     1      48.840  14.237  -4.642  1.00  0.00     0.071 A 
ATOM     11  C10 UNK     1      50.007  14.581  -5.327  1.00  0.00     0.074 A 
ENDROOT
BRANCH   5  12
ATOM     12  C4  UNK     1      46.329  10.610  -8.762  1.00  0.00    -0.002 A 
ATOM     13  C12 UNK     1      46.640   9.384  -9.354  1.00  0.00     0.017 A 
ATOM     14  C14 UNK     1      45.620   8.540  -9.794  1.00  0.00     0.037 A 
ATOM     15  C15 UNK     1      44.286   8.920  -9.643  1.00  0.00     0.065 A 
ATOM     16  C13 UNK     1      43.972  10.144  -9.054  1.00  0.00     0.037 A 
ATOM     17  C11 UNK     1      44.992  10.988  -8.613  1.00  0.00     0.017 A 
BRANCH  15  18
ATOM     18  O5  UNK     1      43.291   8.097 -10.073  1.00  0.00    -0.361 OA
ATOM     19  H10 UNK     1      43.548   7.714 -10.930  1.00  0.00     0.217 HD
ENDBRANCH  15  18
ENDBRANCH   5  12
BRANCH   8  20
ATOM     20  O2  UNK     1      51.403  14.433  -7.226  1.00  0.00    -0.360 OA
ATOM     21  H8  UNK     1      52.063  13.725  -7.161  1.00  0.00     0.217 HD
ENDBRANCH   8  20
BRANCH  10  22
ATOM     22  O4  UNK     1      48.609  14.741  -3.398  1.00  0.00    -0.361 OA
ATOM     23  H9  UNK     1      49.169  15.526  -3.266  1.00  0.00     0.217 HD
ENDBRANCH  10  22
TORSDOF 4
ENDMDL
MODEL 10
REMARK VINA RESULT:      -5.3     10.169     11.444
REMARK  4 active torsions:
REMARK  status: ('A' for Active; 'I' for Inactive)
REMARK    1  A    between atoms: O2_2  and  C7_12 
REMARK    2  A    between atoms: O4_4  and  C9_14 
REMARK    3  A    between atoms: O5_5  and  C15_20 
REMARK    4  A    between atoms: C3_8  and  C4_9 
ROOT
ATOM      1  O1  UNK     1      46.279  11.340  -7.539  1.00  0.00    -0.309 OA
ATOM      2  O3  UNK     1      48.409  12.217 -10.899  1.00  0.00    -0.287 OA
ATOM      3  C1  UNK     1      46.361  11.505  -9.961  1.00  0.00     0.081 A 
ATOM      4  C2  UNK     1      45.690  11.222  -8.773  1.00  0.00     0.095 A 
ATOM      5  C3  UNK     1      47.602  11.750  -7.475  1.00  0.00     0.090 A 
ATOM      6  C5  UNK     1      47.762  11.950  -9.897  1.00  0.00     0.190 A 
ATOM      7  C6  UNK     1      48.350  12.058  -8.546  1.00  0.00     0.094 A 
ATOM      8  C7  UNK     1      45.711  11.368 -11.190  1.00  0.00     0.085 A 
ATOM      9  C8  UNK     1      44.361  10.800  -8.806  1.00  0.00     0.075 A 
ATOM     10  C9  UNK     1      43.707  10.662 -10.031  1.00  0.00     0.071 A 
ATOM     11  C10 UNK     1      44.382  10.945 -11.221  1.00  0.00     0.074 A 
ENDROOT
BRANCH   5  12
ATOM     12  C4  UNK     1      48.133  11.848  -6.101  1.00  0.00    -0.002 A 
ATOM     13  C12 UNK     1      48.644  10.716  -5.464  1.00  0.00     0.017 A 
ATOM     14  C14 UNK     1      49.145  10.809  -4.165  1.00  0.00     0.037 A 
ATOM     15  C15 UNK     1      49.137  12.035  -3.500  1.00  0.00     0.065 A 
ATOM     16  C13 UNK     1      48.626  13.168  -4.133  1.00  0.00     0.037 A 
ATOM     17  C11 UNK     1      48.125  13.075  -5.432  1.00  0.00     0.017 A 
BRANCH  15  18
ATOM     18  O5  UNK     1      49.625  12.125  -2.233  1.00  0.00    -0.361 OA
ATOM     19  H10 UNK     1      49.571  11.249  -1.812  1.00  0.00     0.217 HD
ENDBRANCH  15  18
ENDBRANCH   5  12
BRANCH   8  20
ATOM     20  O2  UNK     1      46.323  11.632 -12.377  1.00  0.00    -0.360 OA
ATOM     21  H8  UNK     1      46.827  10.861 -12.678  1.00  0.00     0.217 HD
ENDBRANCH   8  20
BRANCH  10  22
ATOM     22  O4  UNK     1      42.410  10.250 -10.067  1.00  0.00    -0.361 OA
ATOM     23  H9  UNK     1      41.918  10.692  -9.353  1.00  0.00     0.217 HD
ENDBRANCH  10  22
TORSDOF 4
ENDMDL
MODEL 11
REMARK VINA RESULT:      -5.3      9.992     11.606
REMARK  4 active torsions:
REMARK  status: ('A' for Active; 'I' for Inactive)
REMARK    1  A    between atoms: O2_2  and  C7_12 
REMARK    2  A    between atoms: O4_4  and  C9_14 
REMARK    3  A    between atoms: O5_5  and  C15_20 
REMARK    4  A    between atoms: C3_8  and  C4_9 
ROOT
ATOM      1  O1  UNK     1      46.608  11.580  -7.526  1.00  0.00    -0.309 OA
ATOM      2  O3  UNK     1      48.434   9.088 -10.182  1.00  0.00    -0.287 OA
ATOM      3  C1  UNK     1      46.643  10.562  -9.731  1.00  0.00     0.081 A 
ATOM      4  C2  UNK     1      46.071  11.400  -8.776  1.00  0.00     0.095 A 
ATOM      5  C3  UNK     1      47.765  10.890  -7.199  1.00  0.00     0.090 A 
ATOM      6  C5  UNK     1      47.877   9.837  -9.392  1.00  0.00     0.190 A 
ATOM      7  C6  UNK     1      48.413  10.062  -8.033  1.00  0.00     0.094 A 
ATOM      8  C7  UNK     1      46.054  10.418 -10.989  1.00  0.00     0.085 A 
ATOM      9  C8  UNK     1      44.903  12.101  -9.074  1.00  0.00     0.075 A 
ATOM     10  C9  UNK     1      44.309  11.960 -10.329  1.00  0.00     0.071 A 
ATOM     11  C10 UNK     1      44.884  11.119 -11.285  1.00  0.00     0.074 A 
ENDROOT
BRANCH   5  12
ATOM     12  C4  UNK     1      48.258  11.161  -5.834  1.00  0.00    -0.002 A 
ATOM     13  C12 UNK     1      47.847  12.309  -5.153  1.00  0.00     0.017 A 
ATOM     14  C14 UNK     1      48.314  12.564  -3.864  1.00  0.00     0.037 A 
ATOM     15  C15 UNK     1      49.194  11.672  -3.251  1.00  0.00     0.065 A 
ATOM     16  C13 UNK     1      49.608  10.526  -3.928  1.00  0.00     0.037 A 
ATOM     17  C11 UNK     1      49.141  10.269  -5.218  1.00  0.00     0.017 A 
BRANCH  15  18
ATOM     18  O5  UNK     1      49.650  11.922  -1.994  1.00  0.00    -0.361 OA
ATOM     19  H10 UNK     1      48.934  12.328  -1.474  1.00  0.00     0.217 HD
ENDBRANCH  15  18
ENDBRANCH   5  12
BRANCH   8  20
ATOM     20  O2  UNK     1      46.574   9.613 -11.956  1.00  0.00    -0.360 OA
ATOM     21  H8  UNK     1      47.504   9.836 -12.120  1.00  0.00     0.217 HD
ENDBRANCH   8  20
BRANCH  10  22
ATOM     22  O4  UNK     1      43.169  12.643 -10.623  1.00  0.00    -0.361 OA
ATOM     23  H9  UNK     1      43.255  13.556 -10.298  1.00  0.00     0.217 HD
ENDBRANCH  10  22
TORSDOF 4
ENDMDL
MODEL 12
REMARK VINA RESULT:      -5.3     10.130     12.244
REMARK  4 active torsions:
REMARK  status: ('A' for Active; 'I' for Inactive)
REMARK    1  A    between atoms: O2_2  and  C7_12 
REMARK    2  A    between atoms: O4_4  and  C9_14 
REMARK    3  A    between atoms: O5_5  and  C15_20 
REMARK    4  A    between atoms: C3_8  and  C4_9 
ROOT
ATOM      1  O1  UNK     1      47.802  11.487  -6.031  1.00  0.00    -0.309 OA
ATOM      2  O3  UNK     1      50.748   8.885  -7.103  1.00  0.00    -0.287 OA
ATOM      3  C1  UNK     1      49.822  10.278  -5.434  1.00  0.00     0.081 A 
ATOM      4  C2  UNK     1      48.787  11.160  -5.132  1.00  0.00     0.095 A 
ATOM      5  C3  UNK     1      47.849  10.922  -7.296  1.00  0.00     0.090 A 
ATOM      6  C5  UNK     1      49.869   9.668  -6.772  1.00  0.00     0.190 A 
ATOM      7  C6  UNK     1      48.790  10.055  -7.703  1.00  0.00     0.094 A 
ATOM      8  C7  UNK     1      50.797   9.980  -4.479  1.00  0.00     0.085 A 
ATOM      9  C8  UNK     1      48.718  11.750  -3.871  1.00  0.00     0.075 A 
ATOM     10  C9  UNK     1      49.689  11.456  -2.913  1.00  0.00     0.071 A 
ATOM     11  C10 UNK     1      50.727  10.572  -3.217  1.00  0.00     0.074 A 
ENDROOT
BRANCH   5  12
ATOM     12  C4  UNK     1      46.741  11.338  -8.179  1.00  0.00    -0.002 A 
ATOM     13  C12 UNK     1      45.432  11.375  -7.694  1.00  0.00     0.017 A 
ATOM     14  C14 UNK     1      44.386  11.767  -8.529  1.00  0.00     0.037 A 
ATOM     15  C15 UNK     1      44.646  12.124  -9.853  1.00  0.00     0.065 A 
ATOM     16  C13 UNK     1      45.952  12.087 -10.341  1.00  0.00     0.037 A 
ATOM     17  C11 UNK     1      46.998  11.695  -9.506  1.00  0.00     0.017 A 
BRANCH  15  18
ATOM     18  O5  UNK     1      43.625  12.505 -10.667  1.00  0.00    -0.361 OA
ATOM     19  H10 UNK     1      42.825  12.009 -10.422  1.00  0.00     0.217 HD
ENDBRANCH  15  18
ENDBRANCH   5  12
BRANCH   8  20
ATOM     20  O2  UNK     1      51.829   9.125  -4.724  1.00  0.00    -0.360 OA
ATOM     21  H8  UNK     1      51.623   8.239  -4.387  1.00  0.00     0.217 HD
ENDBRANCH   8  20
BRANCH  10  22
ATOM     22  O4  UNK     1      49.625  12.030  -1.680  1.00  0.00    -0.361 OA
ATOM     23  H9  UNK     1      49.542  11.330  -1.010  1.00  0.00     0.217 HD
ENDBRANCH  10  22
TORSDOF 4
ENDMDL
MODEL 13
REMARK VINA RESULT:      -5.2     11.197     13.588
REMARK  4 active torsions:
REMARK  status: ('A' for Active; 'I' for Inactive)
REMARK    1  A    between atoms: O2_2  and  C7_12 
REMARK    2  A    between atoms: O4_4  and  C9_14 
REMARK    3  A    between atoms: O5_5  and  C15_20 
REMARK    4  A    between atoms: C3_8  and  C4_9 
ROOT
ATOM      1  O1  UNK     1      52.149  11.196  -2.533  1.00  0.00    -0.309 OA
ATOM      2  O3  UNK     1      50.878  11.645   1.312  1.00  0.00    -0.287 OA
ATOM      3  C1  UNK     1      52.700  11.477  -0.184  1.00  0.00     0.081 A 
ATOM      4  C2  UNK     1      53.065  11.322  -1.519  1.00  0.00     0.095 A 
ATOM      5  C3  UNK     1      50.801  11.216  -2.210  1.00  0.00     0.090 A 
ATOM      6  C5  UNK     1      51.270  11.509   0.161  1.00  0.00     0.190 A 
ATOM      7  C6  UNK     1      50.324  11.367  -0.964  1.00  0.00     0.094 A 
ATOM      8  C7  UNK     1      53.676  11.602   0.806  1.00  0.00     0.085 A 
ATOM      9  C8  UNK     1      54.414  11.291  -1.874  1.00  0.00     0.075 A 
ATOM     10  C9  UNK     1      55.394  11.415  -0.888  1.00  0.00     0.071 A 
ATOM     11  C10 UNK     1      55.025  11.569   0.450  1.00  0.00     0.074 A 
ENDROOT
BRANCH   5  12
ATOM     12  C4  UNK     1      49.904  11.079  -3.375  1.00  0.00    -0.002 A 
ATOM     13  C12 UNK     1      50.099  10.046  -4.294  1.00  0.00     0.017 A 
ATOM     14  C14 UNK     1      49.251   9.917  -5.394  1.00  0.00     0.037 A 
ATOM     15  C15 UNK     1      48.205  10.821  -5.579  1.00  0.00     0.065 A 
ATOM     16  C13 UNK     1      48.008  11.855  -4.663  1.00  0.00     0.037 A 
ATOM     17  C11 UNK     1      48.855  11.984  -3.563  1.00  0.00     0.017 A 
BRANCH  15  18
ATOM     18  O5  UNK     1      47.380  10.696  -6.653  1.00  0.00    -0.361 OA
ATOM     19  H10 UNK     1      46.810  11.483  -6.705  1.00  0.00     0.217 HD
ENDBRANCH  15  18
ENDBRANCH   5  12
BRANCH   8  20
ATOM     20  O2  UNK     1      53.370  11.756   2.125  1.00  0.00    -0.360 OA
ATOM     21  H8  UNK     1      54.031  11.314   2.680  1.00  0.00     0.217 HD
ENDBRANCH   8  20
BRANCH  10  22
ATOM     22  O4  UNK     1      56.711  11.385  -1.231  1.00  0.00    -0.361 OA
ATOM     23  H9  UNK     1      56.884  10.580  -1.750  1.00  0.00     0.217 HD
ENDBRANCH  10  22
TORSDOF 4
ENDMDL
MODEL 14
REMARK VINA RESULT:      -5.2     11.572     13.910
REMARK  4 active torsions:
REMARK  status: ('A' for Active; 'I' for Inactive)
REMARK    1  A    between atoms: O2_2  and  C7_12 
REMARK    2  A    between atoms: O4_4  and  C9_14 
REMARK    3  A    between atoms: O5_5  and  C15_20 
REMARK    4  A    between atoms: C3_8  and  C4_9 
ROOT
ATOM      1  O1  UNK     1      40.601  14.510 -13.810  1.00  0.00    -0.309 OA
ATOM      2  O3  UNK     1      40.423  10.972 -11.798  1.00  0.00    -0.287 OA
ATOM      3  C1  UNK     1      39.516  12.363 -13.480  1.00  0.00     0.081 A 
ATOM      4  C2  UNK     1      39.635  13.590 -14.128  1.00  0.00     0.095 A 
ATOM      5  C3  UNK     1      41.493  14.206 -12.792  1.00  0.00     0.090 A 
ATOM      6  C5  UNK     1      40.467  12.032 -12.406  1.00  0.00     0.190 A 
ATOM      7  C6  UNK     1      41.486  13.056 -12.100  1.00  0.00     0.094 A 
ATOM      8  C7  UNK     1      38.513  11.463 -13.846  1.00  0.00     0.085 A 
ATOM      9  C8  UNK     1      38.747  13.927 -15.150  1.00  0.00     0.075 A 
ATOM     10  C9  UNK     1      37.743  13.033 -15.520  1.00  0.00     0.071 A 
ATOM     11  C10 UNK     1      37.625  11.803 -14.868  1.00  0.00     0.074 A 
ENDROOT
BRANCH   5  12
ATOM     12  C4  UNK     1      42.493  15.261 -12.536  1.00  0.00    -0.002 A 
ATOM     13  C12 UNK     1      42.914  15.528 -11.232  1.00  0.00     0.017 A 
ATOM     14  C14 UNK     1      43.859  16.526 -10.991  1.00  0.00     0.037 A 
ATOM     15  C15 UNK     1      44.385  17.260 -12.053  1.00  0.00     0.065 A 
ATOM     16  C13 UNK     1      43.966  16.997 -13.357  1.00  0.00     0.037 A 
ATOM     17  C11 UNK     1      43.022  15.999 -13.599  1.00  0.00     0.017 A 
BRANCH  15  18
ATOM     18  O5  UNK     1      45.306  18.234 -11.817  1.00  0.00    -0.361 OA
ATOM     19  H10 UNK     1      45.684  18.101 -10.930  1.00  0.00     0.217 HD
ENDBRANCH  15  18
ENDBRANCH   5  12
BRANCH   8  20
ATOM     20  O2  UNK     1      38.355  10.252 -13.244  1.00  0.00    -0.360 OA
ATOM     21  H8  UNK     1      39.103   9.670 -13.451  1.00  0.00     0.217 HD
ENDBRANCH   8  20
BRANCH  10  22
ATOM     22  O4  UNK     1      36.875  13.359 -16.517  1.00  0.00    -0.361 OA
ATOM     23  H9  UNK     1      36.928  14.316 -16.681  1.00  0.00     0.217 HD
ENDBRANCH  10  22
TORSDOF 4
ENDMDL
MODEL 15
REMARK VINA RESULT:      -5.2     10.625     12.879
REMARK  4 active torsions:
REMARK  status: ('A' for Active; 'I' for Inactive)
REMARK    1  A    between atoms: O2_2  and  C7_12 
REMARK    2  A    between atoms: O4_4  and  C9_14 
REMARK    3  A    between atoms: O5_5  and  C15_20 
REMARK    4  A    between atoms: C3_8  and  C4_9 
ROOT
ATOM      1  O1  UNK     1      51.118  10.113  -3.772  1.00  0.00    -0.309 OA
ATOM      2  O3  UNK     1      47.511  11.735  -4.751  1.00  0.00    -0.287 OA
ATOM      3  C1  UNK     1      49.308  10.335  -5.377  1.00  0.00     0.081 A 
ATOM      4  C2  UNK     1      50.538   9.814  -4.979  1.00  0.00     0.095 A 
ATOM      5  C3  UNK     1      50.453  10.978  -2.916  1.00  0.00     0.090 A 
ATOM      6  C5  UNK     1      48.594  11.245  -4.468  1.00  0.00     0.190 A 
ATOM      7  C6  UNK     1      49.261  11.537  -3.182  1.00  0.00     0.094 A 
ATOM      8  C7  UNK     1      48.765   9.995  -6.618  1.00  0.00     0.085 A 
ATOM      9  C8  UNK     1      51.234   8.947  -5.822  1.00  0.00     0.075 A 
ATOM     10  C9  UNK     1      50.696   8.605  -7.062  1.00  0.00     0.071 A 
ATOM     11  C10 UNK     1      49.463   9.128  -7.460  1.00  0.00     0.074 A 
ENDROOT
BRANCH   5  12
ATOM     12  C4  UNK     1      51.162  11.227  -1.645  1.00  0.00    -0.002 A 
ATOM     13  C12 UNK     1      50.440  11.503  -0.482  1.00  0.00     0.017 A 
ATOM     14  C14 UNK     1      51.111  11.738   0.719  1.00  0.00     0.037 A 
ATOM     15  C15 UNK     1      52.505  11.698   0.759  1.00  0.00     0.065 A 
ATOM     16  C13 UNK     1      53.228  11.424  -0.401  1.00  0.00     0.037 A 
ATOM     17  C11 UNK     1      52.558  11.188  -1.602  1.00  0.00     0.017 A 
BRANCH  15  18
ATOM     18  O5  UNK     1      53.158  11.929   1.930  1.00  0.00    -0.361 OA
ATOM     19  H10 UNK     1      53.152  11.112   2.460  1.00  0.00     0.217 HD
ENDBRANCH  15  18
ENDBRANCH   5  12
BRANCH   8  20
ATOM     20  O2  UNK     1      47.567  10.476  -7.052  1.00  0.00    -0.360 OA
ATOM     21  H8  UNK     1      46.836   9.984  -6.646  1.00  0.00     0.217 HD
ENDBRANCH   8  20
BRANCH  10  22
ATOM     22  O4  UNK     1      51.372   7.759  -7.887  1.00  0.00    -0.361 OA
ATOM     23  H9  UNK     1      51.751   7.037  -7.357  1.00  0.00     0.217 HD
ENDBRANCH  10  22
TORSDOF 4
ENDMDL
