MODEL 1
REMARK VINA RESULT:      -6.1      0.000      0.000
REMARK  4 active torsions:
REMARK  status: ('A' for Active; 'I' for Inactive)
REMARK    1  A    between atoms: O2_2  and  C7_12 
REMARK    2  A    between atoms: O4_4  and  C9_14 
REMARK    3  A    between atoms: O5_5  and  C15_20 
REMARK    4  A    between atoms: C3_8  and  C4_9 
ROOT
ATOM      1  O1  UNK     1      38.959  22.054  11.027  1.00  0.00    -0.309 OA
ATOM      2  O3  UNK     1      37.788  19.600  14.062  1.00  0.00    -0.287 OA
ATOM      3  C1  UNK     1      39.376  20.080  12.380  1.00  0.00     0.081 A 
ATOM      4  C2  UNK     1      39.719  20.960  11.355  1.00  0.00     0.095 A 
ATOM      5  C3  UNK     1      37.794  22.287  11.743  1.00  0.00     0.090 A 
ATOM      6  C5  UNK     1      38.147  20.329  13.148  1.00  0.00     0.190 A 
ATOM      7  C6  UNK     1      37.362  21.517  12.755  1.00  0.00     0.094 A 
ATOM      8  C7  UNK     1      40.189  18.982  12.670  1.00  0.00     0.085 A 
ATOM      9  C8  UNK     1      40.881  20.747  10.613  1.00  0.00     0.075 A 
ATOM     10  C9  UNK     1      41.696  19.652  10.899  1.00  0.00     0.071 A 
ATOM     11  C10 UNK     1      41.351  18.770  11.926  1.00  0.00     0.074 A 
ENDROOT
BRANCH   5  12
ATOM     12  C4  UNK     1      37.057  23.491  11.313  1.00  0.00    -0.002 A 
ATOM     13  C12 UNK     1      36.032  23.387  10.370  1.00  0.00     0.017 A 
ATOM     14  C14 UNK     1      35.336  24.525   9.963  1.00  0.00     0.037 A 
ATOM     15  C15 UNK     1      35.663  25.772  10.497  1.00  0.00     0.065 A 
ATOM     16  C13 UNK     1      36.686  25.879  11.439  1.00  0.00     0.037 A 
ATOM     17  C11 UNK     1      37.382  24.741  11.846  1.00  0.00     0.017 A 
BRANCH  15  18
ATOM     18  O5  UNK     1      34.984  26.882  10.099  1.00  0.00    -0.361 OA
ATOM     19  H10 UNK     1      35.600  27.634  10.071  1.00  0.00     0.217 HD
ENDBRANCH  15  18
ENDBRANCH   5  12
BRANCH   8  20
ATOM     20  O2  UNK     1      39.899  18.094  13.661  1.00  0.00    -0.360 OA
ATOM     21  H8  UNK     1      39.535  18.554  14.433  1.00  0.00     0.217 HD
ENDBRANCH   8  20
BRANCH  10  22
ATOM     22  O4  UNK     1      42.831  19.441  10.176  1.00  0.00    -0.361 OA
ATOM     23  H9  UNK     1      42.585  19.202   9.266  1.00  0.00     0.217 HD
ENDBRANCH  10  22
TORSDOF 4
ENDMDL
MODEL 2
REMARK VINA RESULT:      -6.0      2.118      6.873
REMARK  4 active torsions:
REMARK  status: ('A' for Active; 'I' for Inactive)
REMARK    1  A    between atoms: O2_2  and  C7_12 
REMARK    2  A    between atoms: O4_4  and  C9_14 
REMARK    3  A    between atoms: O5_5  and  C15_20 
REMARK    4  A    between atoms: C3_8  and  C4_9 
ROOT
ATOM      1  O1  UNK     1      36.686  23.260  10.677  1.00  0.00    -0.309 OA
ATOM      2  O3  UNK     1      34.451  22.781  14.050  1.00  0.00    -0.287 OA
ATOM      3  C1  UNK     1      34.782  23.945  12.021  1.00  0.00     0.081 A 
ATOM      4  C2  UNK     1      35.588  24.055  10.890  1.00  0.00     0.095 A 
ATOM      5  C3  UNK     1      37.010  22.312  11.636  1.00  0.00     0.090 A 
ATOM      6  C5  UNK     1      35.116  22.933  13.036  1.00  0.00     0.190 A 
ATOM      7  C6  UNK     1      36.308  22.105  12.762  1.00  0.00     0.094 A 
ATOM      8  C7  UNK     1      33.676  24.781  12.184  1.00  0.00     0.085 A 
ATOM      9  C8  UNK     1      35.292  25.004   9.912  1.00  0.00     0.075 A 
ATOM     10  C9  UNK     1      34.188  25.842  10.070  1.00  0.00     0.071 A 
ATOM     11  C10 UNK     1      33.381  25.731  11.205  1.00  0.00     0.074 A 
ENDROOT
BRANCH   5  12
ATOM     12  C4  UNK     1      38.204  21.508  11.306  1.00  0.00    -0.002 A 
ATOM     13  C12 UNK     1      38.743  21.549  10.018  1.00  0.00     0.017 A 
ATOM     14  C14 UNK     1      39.870  20.789   9.706  1.00  0.00     0.037 A 
ATOM     15  C15 UNK     1      40.463  19.986  10.681  1.00  0.00     0.065 A 
ATOM     16  C13 UNK     1      39.926  19.943  11.968  1.00  0.00     0.037 A 
ATOM     17  C11 UNK     1      38.799  20.702  12.280  1.00  0.00     0.017 A 
BRANCH  15  18
ATOM     18  O5  UNK     1      41.562  19.245  10.376  1.00  0.00    -0.361 OA
ATOM     19  H10 UNK     1      41.616  19.146   9.409  1.00  0.00     0.217 HD
ENDBRANCH  15  18
ENDBRANCH   5  12
BRANCH   8  20
ATOM     20  O2  UNK     1      32.857  24.713  13.270  1.00  0.00    -0.360 OA
ATOM     21  H8  UNK     1      32.011  25.149  13.086  1.00  0.00     0.217 HD
ENDBRANCH   8  20
BRANCH  10  22
ATOM     22  O4  UNK     1      33.896  26.770   9.118  1.00  0.00    -0.361 OA
ATOM     23  H9  UNK     1      34.418  27.573   9.288  1.00  0.00     0.217 HD
ENDBRANCH  10  22
TORSDOF 4
ENDMDL
MODEL 3
REMARK VINA RESULT:      -5.7      4.297      5.468
REMARK  4 active torsions:
REMARK  status: ('A' for Active; 'I' for Inactive)
REMARK    1  A    between atoms: O2_2  and  C7_12 
REMARK    2  A    between atoms: O4_4  and  C9_14 
REMARK    3  A    between atoms: O5_5  and  C15_20 
REMARK    4  A    between atoms: C3_8  and  C4_9 
ROOT
ATOM      1  O1  UNK     1      41.649  21.473  12.375  1.00  0.00    -0.309 OA
ATOM      2  O3  UNK     1      44.266  18.782  10.792  1.00  0.00    -0.287 OA
ATOM      3  C1  UNK     1      42.297  19.156  12.044  1.00  0.00     0.081 A 
ATOM      4  C2  UNK     1      41.442  20.129  12.557  1.00  0.00     0.095 A 
ATOM      5  C3  UNK     1      42.763  21.879  11.657  1.00  0.00     0.090 A 
ATOM      6  C5  UNK     1      43.476  19.582  11.273  1.00  0.00     0.190 A 
ATOM      7  C6  UNK     1      43.655  21.039  11.107  1.00  0.00     0.094 A 
ATOM      8  C7  UNK     1      42.037  17.801  12.259  1.00  0.00     0.085 A 
ATOM      9  C8  UNK     1      40.317  19.752  13.290  1.00  0.00     0.075 A 
ATOM     10  C9  UNK     1      40.052  18.399  13.508  1.00  0.00     0.071 A 
ATOM     11  C10 UNK     1      40.911  17.425  12.994  1.00  0.00     0.074 A 
ENDROOT
BRANCH   5  12
ATOM     12  C4  UNK     1      42.886  23.343  11.517  1.00  0.00    -0.002 A 
ATOM     13  C12 UNK     1      43.524  23.891  10.402  1.00  0.00     0.017 A 
ATOM     14  C14 UNK     1      43.640  25.274  10.271  1.00  0.00     0.037 A 
ATOM     15  C15 UNK     1      43.119  26.115  11.254  1.00  0.00     0.065 A 
ATOM     16  C13 UNK     1      42.482  25.572  12.370  1.00  0.00     0.037 A 
ATOM     17  C11 UNK     1      42.365  24.188  12.501  1.00  0.00     0.017 A 
BRANCH  15  18
ATOM     18  O5  UNK     1      43.234  27.465  11.126  1.00  0.00    -0.361 OA
ATOM     19  H10 UNK     1      43.410  27.850  12.002  1.00  0.00     0.217 HD
ENDBRANCH  15  18
ENDBRANCH   5  12
BRANCH   8  20
ATOM     20  O2  UNK     1      42.842  16.813  11.779  1.00  0.00    -0.360 OA
ATOM     21  H8  UNK     1      43.697  17.176  11.503  1.00  0.00     0.217 HD
ENDBRANCH   8  20
BRANCH  10  22
ATOM     22  O4  UNK     1      38.955  18.028  14.223  1.00  0.00    -0.361 OA
ATOM     23  H9  UNK     1      39.205  17.933  15.159  1.00  0.00     0.217 HD
ENDBRANCH  10  22
TORSDOF 4
ENDMDL
MODEL 4
REMARK VINA RESULT:      -5.6      2.908      4.932
REMARK  4 active torsions:
REMARK  status: ('A' for Active; 'I' for Inactive)
REMARK    1  A    between atoms: O2_2  and  C7_12 
REMARK    2  A    between atoms: O4_4  and  C9_14 
REMARK    3  A    between atoms: O5_5  and  C15_20 
REMARK    4  A    between atoms: C3_8  and  C4_9 
ROOT
ATOM      1  O1  UNK     1      42.725  21.403  10.665  1.00  0.00    -0.309 OA
ATOM      2  O3  UNK     1      43.363  17.543  11.802  1.00  0.00    -0.287 OA
ATOM      3  C1  UNK     1      44.290  19.593  11.080  1.00  0.00     0.081 A 
ATOM      4  C2  UNK     1      44.002  20.902  10.702  1.00  0.00     0.095 A 
ATOM      5  C3  UNK     1      41.677  20.564  11.012  1.00  0.00     0.090 A 
ATOM      6  C5  UNK     1      43.182  18.702  11.458  1.00  0.00     0.190 A 
ATOM      7  C6  UNK     1      41.827  19.287  11.399  1.00  0.00     0.094 A 
ATOM      8  C7  UNK     1      45.610  19.137  11.100  1.00  0.00     0.085 A 
ATOM      9  C8  UNK     1      45.035  21.768  10.341  1.00  0.00     0.075 A 
ATOM     10  C9  UNK     1      46.355  21.317  10.359  1.00  0.00     0.071 A 
ATOM     11  C10 UNK     1      46.642  20.004  10.737  1.00  0.00     0.074 A 
ENDROOT
BRANCH   5  12
ATOM     12  C4  UNK     1      40.348  21.204  10.943  1.00  0.00    -0.002 A 
ATOM     13  C12 UNK     1      39.943  22.088  11.946  1.00  0.00     0.017 A 
ATOM     14  C14 UNK     1      38.687  22.692  11.881  1.00  0.00     0.037 A 
ATOM     15  C15 UNK     1      37.833  22.415  10.813  1.00  0.00     0.065 A 
ATOM     16  C13 UNK     1      38.235  21.532   9.811  1.00  0.00     0.037 A 
ATOM     17  C11 UNK     1      39.490  20.928   9.875  1.00  0.00     0.017 A 
BRANCH  15  18
ATOM     18  O5  UNK     1      36.608  23.004  10.751  1.00  0.00    -0.361 OA
ATOM     19  H10 UNK     1      36.452  23.310   9.841  1.00  0.00     0.217 HD
ENDBRANCH  15  18
ENDBRANCH   5  12
BRANCH   8  20
ATOM     20  O2  UNK     1      45.944  17.867  11.461  1.00  0.00    -0.360 OA
ATOM     21  H8  UNK     1      45.931  17.775  12.426  1.00  0.00     0.217 HD
ENDBRANCH   8  20
BRANCH  10  22
ATOM     22  O4  UNK     1      47.366  22.159  10.007  1.00  0.00    -0.361 OA
ATOM     23  H9  UNK     1      47.101  23.073  10.210  1.00  0.00     0.217 HD
ENDBRANCH  10  22
TORSDOF 4
ENDMDL
MODEL 5
REMARK VINA RESULT:      -5.6      2.908      4.823
REMARK  4 active torsions:
REMARK  status: ('A' for Active; 'I' for Inactive)
REMARK    1  A    between atoms: O2_2  and  C7_12 
REMARK    2  A    between atoms: O4_4  and  C9_14 
REMARK    3  A    between atoms: O5_5  and  C15_20 
REMARK    4  A    between atoms: C3_8  and  C4_9 
ROOT
ATOM      1  O1  UNK     1      42.729  21.401  10.664  1.00  0.00    -0.309 OA
ATOM      2  O3  UNK     1      43.365  17.546  11.820  1.00  0.00    -0.287 OA
ATOM      3  C1  UNK     1      44.293  19.590  11.082  1.00  0.00     0.081 A 
ATOM      4  C2  UNK     1      44.005  20.898  10.698  1.00  0.00     0.095 A 
ATOM      5  C3  UNK     1      41.681  20.566  11.021  1.00  0.00     0.090 A 
ATOM      6  C5  UNK     1      43.184  18.704  11.471  1.00  0.00     0.190 A 
ATOM      7  C6  UNK     1      41.830  19.292  11.415  1.00  0.00     0.094 A 
ATOM      8  C7  UNK     1      45.612  19.132  11.098  1.00  0.00     0.085 A 
ATOM      9  C8  UNK     1      45.038  21.759  10.327  1.00  0.00     0.075 A 
ATOM     10  C9  UNK     1      46.358  21.307  10.341  1.00  0.00     0.071 A 
ATOM     11  C10 UNK     1      46.644  19.995  10.726  1.00  0.00     0.074 A 
ENDROOT
BRANCH   5  12
ATOM     12  C4  UNK     1      40.353  21.209  10.955  1.00  0.00    -0.002 A 
ATOM     13  C12 UNK     1      39.486  20.922   9.899  1.00  0.00     0.017 A 
ATOM     14  C14 UNK     1      38.232  21.530   9.837  1.00  0.00     0.037 A 
ATOM     15  C15 UNK     1      37.842  22.428  10.831  1.00  0.00     0.065 A 
ATOM     16  C13 UNK     1      38.706  22.718  11.886  1.00  0.00     0.037 A 
ATOM     17  C11 UNK     1      39.960  22.109  11.949  1.00  0.00     0.017 A 
BRANCH  15  18
ATOM     18  O5  UNK     1      36.619  23.021  10.769  1.00  0.00    -0.361 OA
ATOM     19  H10 UNK     1      35.971  22.456  11.225  1.00  0.00     0.217 HD
ENDBRANCH  15  18
ENDBRANCH   5  12
BRANCH   8  20
ATOM     20  O2  UNK     1      45.945  17.864  11.466  1.00  0.00    -0.360 OA
ATOM     21  H8  UNK     1      45.149  17.353  11.682  1.00  0.00     0.217 HD
ENDBRANCH   8  20
BRANCH  10  22
ATOM     22  O4  UNK     1      47.368  22.144   9.980  1.00  0.00    -0.361 OA
ATOM     23  H9  UNK     1      47.129  23.054  10.229  1.00  0.00     0.217 HD
ENDBRANCH  10  22
TORSDOF 4
ENDMDL
MODEL 6
REMARK VINA RESULT:      -5.6      3.823      4.506
REMARK  4 active torsions:
REMARK  status: ('A' for Active; 'I' for Inactive)
REMARK    1  A    between atoms: O2_2  and  C7_12 
REMARK    2  A    between atoms: O4_4  and  C9_14 
REMARK    3  A    between atoms: O5_5  and  C15_20 
REMARK    4  A    between atoms: C3_8  and  C4_9 
ROOT
ATOM      1  O1  UNK     1      42.157  21.109  11.910  1.00  0.00    -0.309 OA
ATOM      2  O3  UNK     1      38.806  20.771  14.201  1.00  0.00    -0.287 OA
ATOM      3  C1  UNK     1      40.581  19.682  13.085  1.00  0.00     0.081 A 
ATOM      4  C2  UNK     1      41.719  19.869  12.303  1.00  0.00     0.095 A 
ATOM      5  C3  UNK     1      41.429  22.222  12.302  1.00  0.00     0.090 A 
ATOM      6  C5  UNK     1      39.812  20.861  13.512  1.00  0.00     0.190 A 
ATOM      7  C6  UNK     1      40.323  22.172  13.061  1.00  0.00     0.094 A 
ATOM      8  C7  UNK     1      40.182  18.397  13.457  1.00  0.00     0.085 A 
ATOM      9  C8  UNK     1      42.468  18.768  11.886  1.00  0.00     0.075 A 
ATOM     10  C9  UNK     1      42.073  17.482  12.255  1.00  0.00     0.071 A 
ATOM     11  C10 UNK     1      40.932  17.296  13.038  1.00  0.00     0.074 A 
ENDROOT
BRANCH   5  12
ATOM     12  C4  UNK     1      41.991  23.502  11.830  1.00  0.00    -0.002 A 
ATOM     13  C12 UNK     1      41.726  24.684  12.525  1.00  0.00     0.017 A 
ATOM     14  C14 UNK     1      42.256  25.894  12.078  1.00  0.00     0.037 A 
ATOM     15  C15 UNK     1      43.054  25.927  10.934  1.00  0.00     0.065 A 
ATOM     16  C13 UNK     1      43.320  24.748  10.237  1.00  0.00     0.037 A 
ATOM     17  C11 UNK     1      42.791  23.538  10.684  1.00  0.00     0.017 A 
BRANCH  15  18
ATOM     18  O5  UNK     1      43.570  27.107  10.498  1.00  0.00    -0.361 OA
ATOM     19  H10 UNK     1      43.821  27.645  11.269  1.00  0.00     0.217 HD
ENDBRANCH  15  18
ENDBRANCH   5  12
BRANCH   8  20
ATOM     20  O2  UNK     1      39.079  18.161  14.220  1.00  0.00    -0.360 OA
ATOM     21  H8  UNK     1      39.306  17.606  14.982  1.00  0.00     0.217 HD
ENDBRANCH   8  20
BRANCH  10  22
ATOM     22  O4  UNK     1      42.802  16.405  11.850  1.00  0.00    -0.361 OA
ATOM     23  H9  UNK     1      42.197  15.730  11.495  1.00  0.00     0.217 HD
ENDBRANCH  10  22
TORSDOF 4
ENDMDL
MODEL 7
REMARK VINA RESULT:      -5.5      3.842      7.886
REMARK  4 active torsions:
REMARK  status: ('A' for Active; 'I' for Inactive)
REMARK    1  A    between atoms: O2_2  and  C7_12 
REMARK    2  A    between atoms: O4_4  and  C9_14 
REMARK    3  A    between atoms: O5_5  and  C15_20 
REMARK    4  A    between atoms: C3_8  and  C4_9 
ROOT
ATOM      1  O1  UNK     1      41.511  22.930  12.187  1.00  0.00    -0.309 OA
ATOM      2  O3  UNK     1      44.676  25.193  10.977  1.00  0.00    -0.287 OA
ATOM      3  C1  UNK     1      42.471  25.132  11.824  1.00  0.00     0.081 A 
ATOM      4  C2  UNK     1      41.428  24.299  12.224  1.00  0.00     0.095 A 
ATOM      5  C3  UNK     1      42.683  22.352  11.722  1.00  0.00     0.090 A 
ATOM      6  C5  UNK     1      43.720  24.523  11.341  1.00  0.00     0.190 A 
ATOM      7  C6  UNK     1      43.759  23.046  11.317  1.00  0.00     0.094 A 
ATOM      8  C7  UNK     1      42.330  26.520  11.885  1.00  0.00     0.085 A 
ATOM      9  C8  UNK     1      40.234  24.851  12.689  1.00  0.00     0.075 A 
ATOM     10  C9  UNK     1      40.088  26.237  12.751  1.00  0.00     0.071 A 
ATOM     11  C10 UNK     1      41.134  27.070  12.349  1.00  0.00     0.074 A 
ENDROOT
BRANCH   5  12
ATOM     12  C4  UNK     1      42.668  20.876  11.729  1.00  0.00    -0.002 A 
ATOM     13  C12 UNK     1      41.456  20.187  11.804  1.00  0.00     0.017 A 
ATOM     14  C14 UNK     1      41.442  18.792  11.811  1.00  0.00     0.037 A 
ATOM     15  C15 UNK     1      42.641  18.082  11.744  1.00  0.00     0.065 A 
ATOM     16  C13 UNK     1      43.853  18.767  11.670  1.00  0.00     0.037 A 
ATOM     17  C11 UNK     1      43.868  20.162  11.662  1.00  0.00     0.017 A 
BRANCH  15  18
ATOM     18  O5  UNK     1      42.627  16.722  11.752  1.00  0.00    -0.361 OA
ATOM     19  H10 UNK     1      42.055  16.417  12.478  1.00  0.00     0.217 HD
ENDBRANCH  15  18
ENDBRANCH   5  12
BRANCH   8  20
ATOM     20  O2  UNK     1      43.320  27.376  11.507  1.00  0.00    -0.360 OA
ATOM     21  H8  UNK     1      44.157  27.137  11.934  1.00  0.00     0.217 HD
ENDBRANCH   8  20
BRANCH  10  22
ATOM     22  O4  UNK     1      38.924  26.779  13.204  1.00  0.00    -0.361 OA
ATOM     23  H9  UNK     1      39.083  27.706  13.454  1.00  0.00     0.217 HD
ENDBRANCH  10  22
TORSDOF 4
ENDMDL
MODEL 8
REMARK VINA RESULT:      -5.5      1.810      3.765
REMARK  4 active torsions:
REMARK  status: ('A' for Active; 'I' for Inactive)
REMARK    1  A    between atoms: O2_2  and  C7_12 
REMARK    2  A    between atoms: O4_4  and  C9_14 
REMARK    3  A    between atoms: O5_5  and  C15_20 
REMARK    4  A    between atoms: C3_8  and  C4_9 
ROOT
ATOM      1  O1  UNK     1      39.887  19.881  12.156  1.00  0.00    -0.309 OA
ATOM      2  O3  UNK     1      43.534  20.589  10.483  1.00  0.00    -0.287 OA
ATOM      3  C1  UNK     1      42.163  19.137  11.747  1.00  0.00     0.081 A 
ATOM      4  C2  UNK     1      40.894  18.958  12.292  1.00  0.00     0.095 A 
ATOM      5  C3  UNK     1      40.151  21.046  11.452  1.00  0.00     0.090 A 
ATOM      6  C5  UNK     1      42.444  20.368  10.990  1.00  0.00     0.190 A 
ATOM      7  C6  UNK     1      41.329  21.331  10.875  1.00  0.00     0.094 A 
ATOM      8  C7  UNK     1      43.149  18.163  11.916  1.00  0.00     0.085 A 
ATOM      9  C8  UNK     1      40.601  17.800  13.012  1.00  0.00     0.075 A 
ATOM     10  C9  UNK     1      41.583  16.823  13.184  1.00  0.00     0.071 A 
ATOM     11  C10 UNK     1      42.855  17.005  12.637  1.00  0.00     0.074 A 
ENDROOT
BRANCH   5  12
ATOM     12  C4  UNK     1      39.000  21.966  11.362  1.00  0.00    -0.002 A 
ATOM     13  C12 UNK     1      38.901  23.054  12.232  1.00  0.00     0.017 A 
ATOM     14  C14 UNK     1      37.812  23.922  12.147  1.00  0.00     0.037 A 
ATOM     15  C15 UNK     1      36.819  23.705  11.192  1.00  0.00     0.065 A 
ATOM     16  C13 UNK     1      36.914  22.618  10.322  1.00  0.00     0.037 A 
ATOM     17  C11 UNK     1      38.003  21.750  10.407  1.00  0.00     0.017 A 
BRANCH  15  18
ATOM     18  O5  UNK     1      35.757  24.551  11.110  1.00  0.00    -0.361 OA
ATOM     19  H10 UNK     1      35.145  24.361  11.842  1.00  0.00     0.217 HD
ENDBRANCH  15  18
ENDBRANCH   5  12
BRANCH   8  20
ATOM     20  O2  UNK     1      44.404  18.291  11.403  1.00  0.00    -0.360 OA
ATOM     21  H8  UNK     1      44.370  18.678  10.514  1.00  0.00     0.217 HD
ENDBRANCH   8  20
BRANCH  10  22
ATOM     22  O4  UNK     1      41.300  15.691  13.886  1.00  0.00    -0.361 OA
ATOM     23  H9  UNK     1      40.805  15.932  14.688  1.00  0.00     0.217 HD
ENDBRANCH  10  22
TORSDOF 4
ENDMDL
MODEL 9
REMARK VINA RESULT:      -5.5      4.871      8.098
REMARK  4 active torsions:
REMARK  status: ('A' for Active; 'I' for Inactive)
REMARK    1  A    between atoms: O2_2  and  C7_12 
REMARK    2  A    between atoms: O4_4  and  C9_14 
REMARK    3  A    between atoms: O5_5  and  C15_20 
REMARK    4  A    between atoms: C3_8  and  C4_9 
ROOT
ATOM      1  O1  UNK     1      42.579  22.916  12.670  1.00  0.00    -0.309 OA
ATOM      2  O3  UNK     1      43.684  24.967   9.328  1.00  0.00    -0.287 OA
ATOM      3  C1  UNK     1      42.979  25.050  11.582  1.00  0.00     0.081 A 
ATOM      4  C2  UNK     1      42.612  24.288  12.689  1.00  0.00     0.095 A 
ATOM      5  C3  UNK     1      42.918  22.263  11.495  1.00  0.00     0.090 A 
ATOM      6  C5  UNK     1      43.349  24.361  10.336  1.00  0.00     0.190 A 
ATOM      7  C6  UNK     1      43.295  22.885  10.366  1.00  0.00     0.094 A 
ATOM      8  C7  UNK     1      42.995  26.444  11.658  1.00  0.00     0.085 A 
ATOM      9  C8  UNK     1      42.258  24.916  13.883  1.00  0.00     0.075 A 
ATOM     10  C9  UNK     1      42.273  26.309  13.964  1.00  0.00     0.071 A 
ATOM     11  C10 UNK     1      42.640  27.072  12.854  1.00  0.00     0.074 A 
ENDROOT
BRANCH   5  12
ATOM     12  C4  UNK     1      42.855  20.791  11.587  1.00  0.00    -0.002 A 
ATOM     13  C12 UNK     1      44.025  20.046  11.744  1.00  0.00     0.017 A 
ATOM     14  C14 UNK     1      43.965  18.655  11.830  1.00  0.00     0.037 A 
ATOM     15  C15 UNK     1      42.733  18.005  11.759  1.00  0.00     0.065 A 
ATOM     16  C13 UNK     1      41.562  18.745  11.602  1.00  0.00     0.037 A 
ATOM     17  C11 UNK     1      41.622  20.136  11.516  1.00  0.00     0.017 A 
BRANCH  15  18
ATOM     18  O5  UNK     1      42.674  16.648  11.843  1.00  0.00    -0.361 OA
ATOM     19  H10 UNK     1      42.406  16.291  10.978  1.00  0.00     0.217 HD
ENDBRANCH  15  18
ENDBRANCH   5  12
BRANCH   8  20
ATOM     20  O2  UNK     1      43.347  27.234  10.606  1.00  0.00    -0.360 OA
ATOM     21  H8  UNK     1      43.212  26.763   9.769  1.00  0.00     0.217 HD
ENDBRANCH   8  20
BRANCH  10  22
ATOM     22  O4  UNK     1      41.928  26.926  15.128  1.00  0.00    -0.361 OA
ATOM     23  H9  UNK     1      41.561  27.803  14.924  1.00  0.00     0.217 HD
ENDBRANCH  10  22
TORSDOF 4
ENDMDL
MODEL 10
REMARK VINA RESULT:      -5.5      3.415      4.318
REMARK  4 active torsions:
REMARK  status: ('A' for Active; 'I' for Inactive)
REMARK    1  A    between atoms: O2_2  and  C7_12 
REMARK    2  A    between atoms: O4_4  and  C9_14 
REMARK    3  A    between atoms: O5_5  and  C15_20 
REMARK    4  A    between atoms: C3_8  and  C4_9 
ROOT
ATOM      1  O1  UNK     1      42.781  23.438  11.489  1.00  0.00    -0.309 OA
ATOM      2  O3  UNK     1      40.197  20.292  11.335  1.00  0.00    -0.287 OA
ATOM      3  C1  UNK     1      42.400  21.086  11.019  1.00  0.00     0.081 A 
ATOM      4  C2  UNK     1      43.229  22.203  11.095  1.00  0.00     0.095 A 
ATOM      5  C3  UNK     1      41.442  23.581  11.817  1.00  0.00     0.090 A 
ATOM      6  C5  UNK     1      40.980  21.230  11.376  1.00  0.00     0.190 A 
ATOM      7  C6  UNK     1      40.546  22.580  11.791  1.00  0.00     0.094 A 
ATOM      8  C7  UNK     1      42.911  19.852  10.612  1.00  0.00     0.085 A 
ATOM      9  C8  UNK     1      44.580  22.092  10.763  1.00  0.00     0.075 A 
ATOM     10  C9  UNK     1      45.096  20.862  10.356  1.00  0.00     0.071 A 
ATOM     11  C10 UNK     1      44.262  19.743  10.280  1.00  0.00     0.074 A 
ENDROOT
BRANCH   5  12
ATOM     12  C4  UNK     1      41.068  24.947  12.232  1.00  0.00    -0.002 A 
ATOM     13  C12 UNK     1      39.758  25.228  12.627  1.00  0.00     0.017 A 
ATOM     14  C14 UNK     1      39.406  26.519  13.018  1.00  0.00     0.037 A 
ATOM     15  C15 UNK     1      40.362  27.535  13.016  1.00  0.00     0.065 A 
ATOM     16  C13 UNK     1      41.671  27.258  12.622  1.00  0.00     0.037 A 
ATOM     17  C11 UNK     1      42.024  25.967  12.231  1.00  0.00     0.017 A 
BRANCH  15  18
ATOM     18  O5  UNK     1      40.018  28.795  13.397  1.00  0.00    -0.361 OA
ATOM     19  H10 UNK     1      40.351  29.426  12.735  1.00  0.00     0.217 HD
ENDBRANCH  15  18
ENDBRANCH   5  12
BRANCH   8  20
ATOM     20  O2  UNK     1      42.142  18.731  10.522  1.00  0.00    -0.360 OA
ATOM     21  H8  UNK     1      41.201  18.963  10.544  1.00  0.00     0.217 HD
ENDBRANCH   8  20
BRANCH  10  22
ATOM     22  O4  UNK     1      46.413  20.750  10.032  1.00  0.00    -0.361 OA
ATOM     23  H9  UNK     1      46.499  20.716   9.063  1.00  0.00     0.217 HD
ENDBRANCH  10  22
TORSDOF 4
ENDMDL
MODEL 11
REMARK VINA RESULT:      -5.5      4.966      8.302
REMARK  4 active torsions:
REMARK  status: ('A' for Active; 'I' for Inactive)
REMARK    1  A    between atoms: O2_2  and  C7_12 
REMARK    2  A    between atoms: O4_4  and  C9_14 
REMARK    3  A    between atoms: O5_5  and  C15_20 
REMARK    4  A    between atoms: C3_8  and  C4_9 
ROOT
ATOM      1  O1  UNK     1      44.331  18.505  11.657  1.00  0.00    -0.309 OA
ATOM      2  O3  UNK     1      41.002  20.688  10.789  1.00  0.00    -0.287 OA
ATOM      3  C1  UNK     1      41.954  18.884  11.981  1.00  0.00     0.081 A 
ATOM      4  C2  UNK     1      43.129  18.180  12.235  1.00  0.00     0.095 A 
ATOM      5  C3  UNK     1      44.372  19.574  10.775  1.00  0.00     0.090 A 
ATOM      6  C5  UNK     1      41.995  20.026  11.054  1.00  0.00     0.190 A 
ATOM      7  C6  UNK     1      43.311  20.332  10.457  1.00  0.00     0.094 A 
ATOM      8  C7  UNK     1      40.758  18.510  12.599  1.00  0.00     0.085 A 
ATOM      9  C8  UNK     1      43.117  17.095  13.111  1.00  0.00     0.075 A 
ATOM     10  C9  UNK     1      41.926  16.717  13.731  1.00  0.00     0.071 A 
ATOM     11  C10 UNK     1      40.748  17.423  13.475  1.00  0.00     0.074 A 
ENDROOT
BRANCH   5  12
ATOM     12  C4  UNK     1      45.712  19.839  10.216  1.00  0.00    -0.002 A 
ATOM     13  C12 UNK     1      46.812  19.093  10.645  1.00  0.00     0.017 A 
ATOM     14  C14 UNK     1      48.078  19.344  10.117  1.00  0.00     0.037 A 
ATOM     15  C15 UNK     1      48.249  20.343   9.159  1.00  0.00     0.065 A 
ATOM     16  C13 UNK     1      47.153  21.091   8.729  1.00  0.00     0.037 A 
ATOM     17  C11 UNK     1      45.887  20.840   9.256  1.00  0.00     0.017 A 
BRANCH  15  18
ATOM     18  O5  UNK     1      49.485  20.588   8.645  1.00  0.00    -0.361 OA
ATOM     19  H10 UNK     1      49.731  19.855   8.054  1.00  0.00     0.217 HD
ENDBRANCH  15  18
ENDBRANCH   5  12
BRANCH   8  20
ATOM     20  O2  UNK     1      39.584  19.164  12.385  1.00  0.00    -0.360 OA
ATOM     21  H8  UNK     1      39.390  19.763  13.122  1.00  0.00     0.217 HD
ENDBRANCH   8  20
BRANCH  10  22
ATOM     22  O4  UNK     1      41.911  15.658  14.587  1.00  0.00    -0.361 OA
ATOM     23  H9  UNK     1      42.797  15.554  14.976  1.00  0.00     0.217 HD
ENDBRANCH  10  22
TORSDOF 4
ENDMDL
MODEL 12
REMARK VINA RESULT:      -5.4      4.040      4.866
REMARK  4 active torsions:
REMARK  status: ('A' for Active; 'I' for Inactive)
REMARK    1  A    between atoms: O2_2  and  C7_12 
REMARK    2  A    between atoms: O4_4  and  C9_14 
REMARK    3  A    between atoms: O5_5  and  C15_20 
REMARK    4  A    between atoms: C3_8  and  C4_9 
ROOT
ATOM      1  O1  UNK     1      43.343  21.204  11.776  1.00  0.00    -0.309 OA
ATOM      2  O3  UNK     1      39.652  19.645  12.516  1.00  0.00    -0.287 OA
ATOM      3  C1  UNK     1      41.962  19.253  12.206  1.00  0.00     0.081 A 
ATOM      4  C2  UNK     1      43.194  19.851  11.951  1.00  0.00     0.095 A 
ATOM      5  C3  UNK     1      42.215  22.008  11.847  1.00  0.00     0.090 A 
ATOM      6  C5  UNK     1      40.764  20.103  12.292  1.00  0.00     0.190 A 
ATOM      7  C6  UNK     1      40.976  21.551  12.093  1.00  0.00     0.094 A 
ATOM      8  C7  UNK     1      41.869  17.870  12.378  1.00  0.00     0.085 A 
ATOM      9  C8  UNK     1      44.345  19.069  11.867  1.00  0.00     0.075 A 
ATOM     10  C9  UNK     1      44.258  17.687  12.038  1.00  0.00     0.071 A 
ATOM     11  C10 UNK     1      43.022  17.088  12.292  1.00  0.00     0.074 A 
ENDROOT
BRANCH   5  12
ATOM     12  C4  UNK     1      42.489  23.444  11.649  1.00  0.00    -0.002 A 
ATOM     13  C12 UNK     1      43.381  23.859  10.657  1.00  0.00     0.017 A 
ATOM     14  C14 UNK     1      43.640  25.217  10.471  1.00  0.00     0.037 A 
ATOM     15  C15 UNK     1      43.008  26.165  11.276  1.00  0.00     0.065 A 
ATOM     16  C13 UNK     1      42.118  25.754  12.268  1.00  0.00     0.037 A 
ATOM     17  C11 UNK     1      41.858  24.397  12.454  1.00  0.00     0.017 A 
BRANCH  15  18
ATOM     18  O5  UNK     1      43.262  27.489  11.095  1.00  0.00    -0.361 OA
ATOM     19  H10 UNK     1      44.225  27.625  11.074  1.00  0.00     0.217 HD
ENDBRANCH  15  18
ENDBRANCH   5  12
BRANCH   8  20
ATOM     20  O2  UNK     1      40.689  17.238  12.629  1.00  0.00    -0.360 OA
ATOM     21  H8  UNK     1      40.672  16.900  13.538  1.00  0.00     0.217 HD
ENDBRANCH   8  20
BRANCH  10  22
ATOM     22  O4  UNK     1      45.380  16.919  11.956  1.00  0.00    -0.361 OA
ATOM     23  H9  UNK     1      45.131  16.025  11.665  1.00  0.00     0.217 HD
ENDBRANCH  10  22
TORSDOF 4
ENDMDL
MODEL 13
REMARK VINA RESULT:      -5.4      3.942      7.038
REMARK  4 active torsions:
REMARK  status: ('A' for Active; 'I' for Inactive)
REMARK    1  A    between atoms: O2_2  and  C7_12 
REMARK    2  A    between atoms: O4_4  and  C9_14 
REMARK    3  A    between atoms: O5_5  and  C15_20 
REMARK    4  A    between atoms: C3_8  and  C4_9 
ROOT
ATOM      1  O1  UNK     1      44.141  20.114  10.247  1.00  0.00    -0.309 OA
ATOM      2  O3  UNK     1      46.318  17.465  12.447  1.00  0.00    -0.287 OA
ATOM      3  C1  UNK     1      46.285  19.073  10.715  1.00  0.00     0.081 A 
ATOM      4  C2  UNK     1      45.483  19.961  10.002  1.00  0.00     0.095 A 
ATOM      5  C3  UNK     1      43.559  19.345  11.243  1.00  0.00     0.090 A 
ATOM      6  C5  UNK     1      45.674  18.261  11.780  1.00  0.00     0.190 A 
ATOM      7  C6  UNK     1      44.227  18.462  12.003  1.00  0.00     0.094 A 
ATOM      8  C7  UNK     1      47.645  18.958  10.423  1.00  0.00     0.085 A 
ATOM      9  C8  UNK     1      46.038  20.743   8.989  1.00  0.00     0.075 A 
ATOM     10  C9  UNK     1      47.397  20.632   8.693  1.00  0.00     0.071 A 
ATOM     11  C10 UNK     1      48.199  19.741   9.409  1.00  0.00     0.074 A 
ENDROOT
BRANCH   5  12
ATOM     12  C4  UNK     1      42.116  19.593  11.427  1.00  0.00    -0.002 A 
ATOM     13  C12 UNK     1      41.426  18.981  12.475  1.00  0.00     0.017 A 
ATOM     14  C14 UNK     1      40.062  19.215  12.647  1.00  0.00     0.037 A 
ATOM     15  C15 UNK     1      39.383  20.064  11.772  1.00  0.00     0.065 A 
ATOM     16  C13 UNK     1      40.069  20.676  10.724  1.00  0.00     0.037 A 
ATOM     17  C11 UNK     1      41.433  20.443  10.551  1.00  0.00     0.017 A 
BRANCH  15  18
ATOM     18  O5  UNK     1      38.052  20.291  11.940  1.00  0.00    -0.361 OA
ATOM     19  H10 UNK     1      37.750  19.820  12.736  1.00  0.00     0.217 HD
ENDBRANCH  15  18
ENDBRANCH   5  12
BRANCH   8  20
ATOM     20  O2  UNK     1      48.471  18.106  11.091  1.00  0.00    -0.360 OA
ATOM     21  H8  UNK     1      49.312  18.542  11.301  1.00  0.00     0.217 HD
ENDBRANCH   8  20
BRANCH  10  22
ATOM     22  O4  UNK     1      47.942  21.394   7.705  1.00  0.00    -0.361 OA
ATOM     23  H9  UNK     1      48.153  22.273   8.064  1.00  0.00     0.217 HD
ENDBRANCH  10  22
TORSDOF 4
ENDMDL
MODEL 14
REMARK VINA RESULT:      -5.4      4.684      8.807
REMARK  4 active torsions:
REMARK  status: ('A' for Active; 'I' for Inactive)
REMARK    1  A    between atoms: O2_2  and  C7_12 
REMARK    2  A    between atoms: O4_4  and  C9_14 
REMARK    3  A    between atoms: O5_5  and  C15_20 
REMARK    4  A    between atoms: C3_8  and  C4_9 
ROOT
ATOM      1  O1  UNK     1      44.826  22.879  10.648  1.00  0.00    -0.309 OA
ATOM      2  O3  UNK     1      41.244  21.347  11.839  1.00  0.00    -0.287 OA
ATOM      3  C1  UNK     1      42.578  23.264  11.483  1.00  0.00     0.081 A 
ATOM      4  C2  UNK     1      43.826  23.721  11.063  1.00  0.00     0.095 A 
ATOM      5  C3  UNK     1      44.586  21.513  10.658  1.00  0.00     0.090 A 
ATOM      6  C5  UNK     1      42.316  21.817  11.485  1.00  0.00     0.190 A 
ATOM      7  C6  UNK     1      43.425  20.952  11.033  1.00  0.00     0.094 A 
ATOM      8  C7  UNK     1      41.596  24.168  11.894  1.00  0.00     0.085 A 
ATOM      9  C8  UNK     1      44.099  25.089  11.049  1.00  0.00     0.075 A 
ATOM     10  C9  UNK     1      43.122  25.996  11.458  1.00  0.00     0.071 A 
ATOM     11  C10 UNK     1      41.872  25.537  11.881  1.00  0.00     0.074 A 
ENDROOT
BRANCH   5  12
ATOM     12  C4  UNK     1      45.726  20.701  10.189  1.00  0.00    -0.002 A 
ATOM     13  C12 UNK     1      46.380  21.029   8.999  1.00  0.00     0.017 A 
ATOM     14  C14 UNK     1      47.456  20.261   8.556  1.00  0.00     0.037 A 
ATOM     15  C15 UNK     1      47.882  19.161   9.301  1.00  0.00     0.065 A 
ATOM     16  C13 UNK     1      47.230  18.829  10.488  1.00  0.00     0.037 A 
ATOM     17  C11 UNK     1      46.154  19.597  10.932  1.00  0.00     0.017 A 
BRANCH  15  18
ATOM     18  O5  UNK     1      48.931  18.411   8.868  1.00  0.00    -0.361 OA
ATOM     19  H10 UNK     1      49.707  18.606   9.421  1.00  0.00     0.217 HD
ENDBRANCH  15  18
ENDBRANCH   5  12
BRANCH   8  20
ATOM     20  O2  UNK     1      40.362  23.773  12.313  1.00  0.00    -0.360 OA
ATOM     21  H8  UNK     1      40.190  22.857  12.045  1.00  0.00     0.217 HD
ENDBRANCH   8  20
BRANCH  10  22
ATOM     22  O4  UNK     1      43.386  27.332  11.447  1.00  0.00    -0.361 OA
ATOM     23  H9  UNK     1      42.954  27.732  10.672  1.00  0.00     0.217 HD
ENDBRANCH  10  22
TORSDOF 4
ENDMDL
MODEL 15
REMARK VINA RESULT:      -5.4      3.085      7.686
REMARK  4 active torsions:
REMARK  status: ('A' for Active; 'I' for Inactive)
REMARK    1  A    between atoms: O2_2  and  C7_12 
REMARK    2  A    between atoms: O4_4  and  C9_14 
REMARK    3  A    between atoms: O5_5  and  C15_20 
REMARK    4  A    between atoms: C3_8  and  C4_9 
ROOT
ATOM      1  O1  UNK     1      42.565  20.294  10.486  1.00  0.00    -0.309 OA
ATOM      2  O3  UNK     1      41.395  18.456  13.929  1.00  0.00    -0.287 OA
ATOM      3  C1  UNK     1      40.784  19.742  12.043  1.00  0.00     0.081 A 
ATOM      4  C2  UNK     1      41.251  20.347  10.878  1.00  0.00     0.095 A 
ATOM      5  C3  UNK     1      43.467  19.615  11.291  1.00  0.00     0.090 A 
ATOM      6  C5  UNK     1      41.736  19.012  12.895  1.00  0.00     0.190 A 
ATOM      7  C6  UNK     1      43.139  18.986  12.431  1.00  0.00     0.094 A 
ATOM      8  C7  UNK     1      39.435  19.828  12.393  1.00  0.00     0.085 A 
ATOM      9  C8  UNK     1      40.368  21.043  10.052  1.00  0.00     0.075 A 
ATOM     10  C9  UNK     1      39.019  21.132  10.397  1.00  0.00     0.071 A 
ATOM     11  C10 UNK     1      38.553  20.526  11.566  1.00  0.00     0.074 A 
ENDROOT
BRANCH   5  12
ATOM     12  C4  UNK     1      44.850  19.615  10.774  1.00  0.00    -0.002 A 
ATOM     13  C12 UNK     1      45.217  20.493   9.751  1.00  0.00     0.017 A 
ATOM     14  C14 UNK     1      46.523  20.492   9.263  1.00  0.00     0.037 A 
ATOM     15  C15 UNK     1      47.467  19.613   9.795  1.00  0.00     0.065 A 
ATOM     16  C13 UNK     1      47.103  18.734  10.815  1.00  0.00     0.037 A 
ATOM     17  C11 UNK     1      45.797  18.735  11.305  1.00  0.00     0.017 A 
BRANCH  15  18
ATOM     18  O5  UNK     1      48.741  19.612   9.317  1.00  0.00    -0.361 OA
ATOM     19  H10 UNK     1      49.019  18.692   9.165  1.00  0.00     0.217 HD
ENDBRANCH  15  18
ENDBRANCH   5  12
BRANCH   8  20
ATOM     20  O2  UNK     1      38.930  19.254  13.520  1.00  0.00    -0.360 OA
ATOM     21  H8  UNK     1      39.589  18.672  13.929  1.00  0.00     0.217 HD
ENDBRANCH   8  20
BRANCH  10  22
ATOM     22  O4  UNK     1      38.155  21.811   9.593  1.00  0.00    -0.361 OA
ATOM     23  H9  UNK     1      38.467  21.752   8.673  1.00  0.00     0.217 HD
ENDBRANCH  10  22
TORSDOF 4
ENDMDL
MODEL 16
REMARK VINA RESULT:      -5.4      3.625      5.085
REMARK  4 active torsions:
REMARK  status: ('A' for Active; 'I' for Inactive)
REMARK    1  A    between atoms: O2_2  and  C7_12 
REMARK    2  A    between atoms: O4_4  and  C9_14 
REMARK    3  A    between atoms: O5_5  and  C15_20 
REMARK    4  A    between atoms: C3_8  and  C4_9 
ROOT
ATOM      1  O1  UNK     1      41.595  23.305  11.662  1.00  0.00    -0.309 OA
ATOM      2  O3  UNK     1      45.612  23.961  11.469  1.00  0.00    -0.287 OA
ATOM      3  C1  UNK     1      43.821  22.439  11.218  1.00  0.00     0.081 A 
ATOM      4  C2  UNK     1      42.439  22.284  11.303  1.00  0.00     0.095 A 
ATOM      5  C3  UNK     1      42.145  24.542  11.961  1.00  0.00     0.090 A 
ATOM      6  C5  UNK     1      44.408  23.753  11.525  1.00  0.00     0.190 A 
ATOM      7  C6  UNK     1      43.458  24.818  11.909  1.00  0.00     0.094 A 
ATOM      8  C7  UNK     1      44.632  21.365  10.847  1.00  0.00     0.085 A 
ATOM      9  C8  UNK     1      41.857  21.049  11.015  1.00  0.00     0.075 A 
ATOM     10  C9  UNK     1      42.663  19.973  10.644  1.00  0.00     0.071 A 
ATOM     11  C10 UNK     1      44.048  20.130  10.560  1.00  0.00     0.074 A 
ENDROOT
BRANCH   5  12
ATOM     12  C4  UNK     1      41.150  25.568  12.328  1.00  0.00    -0.002 A 
ATOM     13  C12 UNK     1      39.836  25.197  12.624  1.00  0.00     0.017 A 
ATOM     14  C14 UNK     1      38.896  26.167  12.970  1.00  0.00     0.037 A 
ATOM     15  C15 UNK     1      39.265  27.511  13.023  1.00  0.00     0.065 A 
ATOM     16  C13 UNK     1      40.576  27.885  12.727  1.00  0.00     0.037 A 
ATOM     17  C11 UNK     1      41.518  26.915  12.381  1.00  0.00     0.017 A 
BRANCH  15  18
ATOM     18  O5  UNK     1      38.347  28.457  13.360  1.00  0.00    -0.361 OA
ATOM     19  H10 UNK     1      37.520  28.277  12.880  1.00  0.00     0.217 HD
ENDBRANCH  15  18
ENDBRANCH   5  12
BRANCH   8  20
ATOM     20  O2  UNK     1      45.986  21.466  10.749  1.00  0.00    -0.360 OA
ATOM     21  H8  UNK     1      46.299  22.275  11.182  1.00  0.00     0.217 HD
ENDBRANCH   8  20
BRANCH  10  22
ATOM     22  O4  UNK     1      42.098  18.766  10.362  1.00  0.00    -0.361 OA
ATOM     23  H9  UNK     1      42.772  18.071  10.462  1.00  0.00     0.217 HD
ENDBRANCH  10  22
TORSDOF 4
ENDMDL
MODEL 17
REMARK VINA RESULT:      -5.2      2.113      3.065
REMARK  4 active torsions:
REMARK  status: ('A' for Active; 'I' for Inactive)
REMARK    1  A    between atoms: O2_2  and  C7_12 
REMARK    2  A    between atoms: O4_4  and  C9_14 
REMARK    3  A    between atoms: O5_5  and  C15_20 
REMARK    4  A    between atoms: C3_8  and  C4_9 
ROOT
ATOM      1  O1  UNK     1      41.173  22.410  11.116  1.00  0.00    -0.309 OA
ATOM      2  O3  UNK     1      41.196  18.415  11.915  1.00  0.00    -0.287 OA
ATOM      3  C1  UNK     1      42.431  20.343  11.333  1.00  0.00     0.081 A 
ATOM      4  C2  UNK     1      42.352  21.710  11.072  1.00  0.00     0.095 A 
ATOM      5  C3  UNK     1      40.008  21.723  11.426  1.00  0.00     0.090 A 
ATOM      6  C5  UNK     1      41.199  19.613  11.672  1.00  0.00     0.190 A 
ATOM      7  C6  UNK     1      39.956  20.411  11.704  1.00  0.00     0.094 A 
ATOM      8  C7  UNK     1      43.659  19.682  11.274  1.00  0.00     0.085 A 
ATOM      9  C8  UNK     1      43.505  22.426  10.750  1.00  0.00     0.075 A 
ATOM     10  C9  UNK     1      44.735  21.770  10.690  1.00  0.00     0.071 A 
ATOM     11  C10 UNK     1      44.812  20.400  10.951  1.00  0.00     0.074 A 
ENDROOT
BRANCH   5  12
ATOM     12  C4  UNK     1      38.801  22.572  11.451  1.00  0.00    -0.002 A 
ATOM     13  C12 UNK     1      37.694  22.241  10.667  1.00  0.00     0.017 A 
ATOM     14  C14 UNK     1      36.553  23.044  10.691  1.00  0.00     0.037 A 
ATOM     15  C15 UNK     1      36.516  24.180  11.500  1.00  0.00     0.065 A 
ATOM     16  C13 UNK     1      37.620  24.513  12.284  1.00  0.00     0.037 A 
ATOM     17  C11 UNK     1      38.761  23.711  12.261  1.00  0.00     0.017 A 
BRANCH  15  18
ATOM     18  O5  UNK     1      35.403  24.963  11.522  1.00  0.00    -0.361 OA
ATOM     19  H10 UNK     1      35.663  25.883  11.343  1.00  0.00     0.217 HD
ENDBRANCH  15  18
ENDBRANCH   5  12
BRANCH   8  20
ATOM     20  O2  UNK     1      43.789  18.349  11.521  1.00  0.00    -0.360 OA
ATOM     21  H8  UNK     1      44.725  18.097  11.542  1.00  0.00     0.217 HD
ENDBRANCH   8  20
BRANCH  10  22
ATOM     22  O4  UNK     1      45.862  22.466  10.376  1.00  0.00    -0.361 OA
ATOM     23  H9  UNK     1      46.085  23.056  11.117  1.00  0.00     0.217 HD
ENDBRANCH  10  22
TORSDOF 4
ENDMDL
