MODEL 1
REMARK VINA RESULT:      -7.9      0.000      0.000
REMARK  4 active torsions:
REMARK  status: ('A' for Active; 'I' for Inactive)
REMARK    1  A    between atoms: O2_2  and  C7_12 
REMARK    2  A    between atoms: O4_4  and  C9_14 
REMARK    3  A    between atoms: O5_5  and  C15_20 
REMARK    4  A    between atoms: C3_8  and  C4_9 
ROOT
ATOM      1  O1  UNK     1      39.725  15.571  -0.053  1.00  0.00    -0.309 OA
ATOM      2  O3  UNK     1      41.132  16.577  -3.742  1.00  0.00    -0.287 OA
ATOM      3  C1  UNK     1      39.997  17.254  -1.783  1.00  0.00     0.081 A 
ATOM      4  C2  UNK     1      39.543  16.844  -0.531  1.00  0.00     0.095 A 
ATOM      5  C3  UNK     1      40.382  14.652  -0.856  1.00  0.00     0.090 A 
ATOM      6  C5  UNK     1      40.704  16.285  -2.634  1.00  0.00     0.190 A 
ATOM      7  C6  UNK     1      40.872  14.927  -2.075  1.00  0.00     0.094 A 
ATOM      8  C7  UNK     1      39.785  18.564  -2.218  1.00  0.00     0.085 A 
ATOM      9  C8  UNK     1      38.872  17.744   0.297  1.00  0.00     0.075 A 
ATOM     10  C9  UNK     1      38.657  19.054  -0.133  1.00  0.00     0.071 A 
ATOM     11  C10 UNK     1      39.112  19.463  -1.389  1.00  0.00     0.074 A 
ENDROOT
BRANCH   5  12
ATOM     12  C4  UNK     1      40.528  13.317  -0.244  1.00  0.00    -0.002 A 
ATOM     13  C12 UNK     1      40.153  13.109   1.085  1.00  0.00     0.017 A 
ATOM     14  C14 UNK     1      40.292  11.847   1.664  1.00  0.00     0.037 A 
ATOM     15  C15 UNK     1      40.806  10.789   0.915  1.00  0.00     0.065 A 
ATOM     16  C13 UNK     1      41.183  10.993  -0.412  1.00  0.00     0.037 A 
ATOM     17  C11 UNK     1      41.044  12.254  -0.991  1.00  0.00     0.017 A 
BRANCH  15  18
ATOM     18  O5  UNK     1      40.942   9.559   1.480  1.00  0.00    -0.361 OA
ATOM     19  H10 UNK     1      41.128   8.909   0.780  1.00  0.00     0.217 HD
ENDBRANCH  15  18
ENDBRANCH   5  12
BRANCH   8  20
ATOM     20  O2  UNK     1      40.209  19.014  -3.431  1.00  0.00    -0.360 OA
ATOM     21  H8  UNK     1      39.452  19.225  -3.999  1.00  0.00     0.217 HD
ENDBRANCH   8  20
BRANCH  10  22
ATOM     22  O4  UNK     1      38.002  19.935   0.672  1.00  0.00    -0.361 OA
ATOM     23  H9  UNK     1      38.555  20.123   1.450  1.00  0.00     0.217 HD
ENDBRANCH  10  22
TORSDOF 4
ENDMDL
MODEL 2
REMARK VINA RESULT:      -7.1      0.900      1.461
REMARK  4 active torsions:
REMARK  status: ('A' for Active; 'I' for Inactive)
REMARK    1  A    between atoms: O2_2  and  C7_12 
REMARK    2  A    between atoms: O4_4  and  C9_14 
REMARK    3  A    between atoms: O5_5  and  C15_20 
REMARK    4  A    between atoms: C3_8  and  C4_9 
ROOT
ATOM      1  O1  UNK     1      39.745  16.109  -0.298  1.00  0.00    -0.309 OA
ATOM      2  O3  UNK     1      40.861  17.807  -3.829  1.00  0.00    -0.287 OA
ATOM      3  C1  UNK     1      39.858  18.084  -1.708  1.00  0.00     0.081 A 
ATOM      4  C2  UNK     1      39.504  17.441  -0.524  1.00  0.00     0.095 A 
ATOM      5  C3  UNK     1      40.361  15.371  -1.298  1.00  0.00     0.090 A 
ATOM      6  C5  UNK     1      40.521  17.307  -2.767  1.00  0.00     0.190 A 
ATOM      7  C6  UNK     1      40.755  15.877  -2.477  1.00  0.00     0.094 A 
ATOM      8  C7  UNK     1      39.590  19.443  -1.882  1.00  0.00     0.085 A 
ATOM      9  C8  UNK     1      38.877  18.156   0.497  1.00  0.00     0.075 A 
ATOM     10  C9  UNK     1      38.606  19.514   0.328  1.00  0.00     0.071 A 
ATOM     11  C10 UNK     1      38.961  20.156  -0.860  1.00  0.00     0.074 A 
ENDROOT
BRANCH   5  12
ATOM     12  C4  UNK     1      40.577  13.953  -0.949  1.00  0.00    -0.002 A 
ATOM     13  C12 UNK     1      41.427  13.161  -1.724  1.00  0.00     0.017 A 
ATOM     14  C14 UNK     1      41.630  11.821  -1.394  1.00  0.00     0.037 A 
ATOM     15  C15 UNK     1      40.983  11.268  -0.289  1.00  0.00     0.065 A 
ATOM     16  C13 UNK     1      40.133  12.056   0.487  1.00  0.00     0.037 A 
ATOM     17  C11 UNK     1      39.930  13.396   0.158  1.00  0.00     0.017 A 
BRANCH  15  18
ATOM     18  O5  UNK     1      41.181   9.961   0.031  1.00  0.00    -0.361 OA
ATOM     19  H10 UNK     1      42.091   9.851   0.359  1.00  0.00     0.217 HD
ENDBRANCH  15  18
ENDBRANCH   5  12
BRANCH   8  20
ATOM     20  O2  UNK     1      39.916  20.117  -3.020  1.00  0.00    -0.360 OA
ATOM     21  H8  UNK     1      39.375  19.809  -3.764  1.00  0.00     0.217 HD
ENDBRANCH   8  20
BRANCH  10  22
ATOM     22  O4  UNK     1      37.994  20.214   1.322  1.00  0.00    -0.361 OA
ATOM     23  H9  UNK     1      37.807  21.115   1.005  1.00  0.00     0.217 HD
ENDBRANCH  10  22
TORSDOF 4
ENDMDL
MODEL 3
REMARK VINA RESULT:      -6.8      1.248      3.000
REMARK  4 active torsions:
REMARK  status: ('A' for Active; 'I' for Inactive)
REMARK    1  A    between atoms: O2_2  and  C7_12 
REMARK    2  A    between atoms: O4_4  and  C9_14 
REMARK    3  A    between atoms: O5_5  and  C15_20 
REMARK    4  A    between atoms: C3_8  and  C4_9 
ROOT
ATOM      1  O1  UNK     1      40.597  15.175  -1.896  1.00  0.00    -0.309 OA
ATOM      2  O3  UNK     1      38.878  18.080   0.386  1.00  0.00    -0.287 OA
ATOM      3  C1  UNK     1      39.861  17.480  -1.677  1.00  0.00     0.081 A 
ATOM      4  C2  UNK     1      40.439  16.440  -2.403  1.00  0.00     0.095 A 
ATOM      5  C3  UNK     1      40.169  14.925  -0.600  1.00  0.00     0.090 A 
ATOM      6  C5  UNK     1      39.396  17.216  -0.306  1.00  0.00     0.190 A 
ATOM      7  C6  UNK     1      39.591  15.840   0.195  1.00  0.00     0.094 A 
ATOM      8  C7  UNK     1      39.724  18.748  -2.245  1.00  0.00     0.085 A 
ATOM      9  C8  UNK     1      40.885  16.663  -3.706  1.00  0.00     0.075 A 
ATOM     10  C9  UNK     1      40.752  17.929  -4.278  1.00  0.00     0.071 A 
ATOM     11  C10 UNK     1      40.173  18.970  -3.548  1.00  0.00     0.074 A 
ENDROOT
BRANCH   5  12
ATOM     12  C4  UNK     1      40.381  13.533  -0.157  1.00  0.00    -0.002 A 
ATOM     13  C12 UNK     1      40.795  12.561  -1.071  1.00  0.00     0.017 A 
ATOM     14  C14 UNK     1      40.994  11.246  -0.651  1.00  0.00     0.037 A 
ATOM     15  C15 UNK     1      40.781  10.898   0.683  1.00  0.00     0.065 A 
ATOM     16  C13 UNK     1      40.367  11.866   1.597  1.00  0.00     0.037 A 
ATOM     17  C11 UNK     1      40.168  13.182   1.179  1.00  0.00     0.017 A 
BRANCH  15  18
ATOM     18  O5  UNK     1      40.975   9.615   1.091  1.00  0.00    -0.361 OA
ATOM     19  H10 UNK     1      41.931   9.441   1.141  1.00  0.00     0.217 HD
ENDBRANCH  15  18
ENDBRANCH   5  12
BRANCH   8  20
ATOM     20  O2  UNK     1      39.166  19.796  -1.578  1.00  0.00    -0.360 OA
ATOM     21  H8  UNK     1      39.430  20.636  -1.984  1.00  0.00     0.217 HD
ENDBRANCH   8  20
BRANCH  10  22
ATOM     22  O4  UNK     1      41.187  18.150  -5.549  1.00  0.00    -0.361 OA
ATOM     23  H9  UNK     1      41.858  17.483  -5.774  1.00  0.00     0.217 HD
ENDBRANCH  10  22
TORSDOF 4
ENDMDL
MODEL 4
REMARK VINA RESULT:      -6.7      1.476      6.649
REMARK  4 active torsions:
REMARK  status: ('A' for Active; 'I' for Inactive)
REMARK    1  A    between atoms: O2_2  and  C7_12 
REMARK    2  A    between atoms: O4_4  and  C9_14 
REMARK    3  A    between atoms: O5_5  and  C15_20 
REMARK    4  A    between atoms: C3_8  and  C4_9 
ROOT
ATOM      1  O1  UNK     1      39.650  14.633   0.108  1.00  0.00    -0.309 OA
ATOM      2  O3  UNK     1      42.272  13.274  -2.699  1.00  0.00    -0.287 OA
ATOM      3  C1  UNK     1      40.930  12.787  -0.816  1.00  0.00     0.081 A 
ATOM      4  C2  UNK     1      40.037  13.316   0.113  1.00  0.00     0.095 A 
ATOM      5  C3  UNK     1      40.180  15.473  -0.860  1.00  0.00     0.090 A 
ATOM      6  C5  UNK     1      41.486  13.672  -1.851  1.00  0.00     0.190 A 
ATOM      7  C6  UNK     1      41.041  15.081  -1.812  1.00  0.00     0.094 A 
ATOM      8  C7  UNK     1      41.287  11.438  -0.764  1.00  0.00     0.085 A 
ATOM      9  C8  UNK     1      39.494  12.497   1.103  1.00  0.00     0.075 A 
ATOM     10  C9  UNK     1      39.848  11.149   1.160  1.00  0.00     0.071 A 
ATOM     11  C10 UNK     1      40.744  10.620   0.228  1.00  0.00     0.074 A 
ENDROOT
BRANCH   5  12
ATOM     12  C4  UNK     1      39.693  16.864  -0.777  1.00  0.00    -0.002 A 
ATOM     13  C12 UNK     1      39.999  17.776  -1.789  1.00  0.00     0.017 A 
ATOM     14  C14 UNK     1      39.540  19.091  -1.710  1.00  0.00     0.037 A 
ATOM     15  C15 UNK     1      38.773  19.498  -0.618  1.00  0.00     0.065 A 
ATOM     16  C13 UNK     1      38.467  18.590   0.395  1.00  0.00     0.037 A 
ATOM     17  C11 UNK     1      38.925  17.275   0.316  1.00  0.00     0.017 A 
BRANCH  15  18
ATOM     18  O5  UNK     1      38.326  20.781  -0.541  1.00  0.00    -0.361 OA
ATOM     19  H10 UNK     1      37.442  20.830  -0.943  1.00  0.00     0.217 HD
ENDBRANCH  15  18
ENDBRANCH   5  12
BRANCH   8  20
ATOM     20  O2  UNK     1      42.155  10.873  -1.649  1.00  0.00    -0.360 OA
ATOM     21  H8  UNK     1      41.981  11.194  -2.547  1.00  0.00     0.217 HD
ENDBRANCH   8  20
BRANCH  10  22
ATOM     22  O4  UNK     1      39.319  10.347   2.125  1.00  0.00    -0.361 OA
ATOM     23  H9  UNK     1      39.878  10.400   2.920  1.00  0.00     0.217 HD
ENDBRANCH  10  22
TORSDOF 4
ENDMDL
MODEL 5
REMARK VINA RESULT:      -5.6      9.627     11.852
REMARK  4 active torsions:
REMARK  status: ('A' for Active; 'I' for Inactive)
REMARK    1  A    between atoms: O2_2  and  C7_12 
REMARK    2  A    between atoms: O4_4  and  C9_14 
REMARK    3  A    between atoms: O5_5  and  C15_20 
REMARK    4  A    between atoms: C3_8  and  C4_9 
ROOT
ATOM      1  O1  UNK     1      45.840  11.294  -7.721  1.00  0.00    -0.309 OA
ATOM      2  O3  UNK     1      48.169   8.312  -9.233  1.00  0.00    -0.287 OA
ATOM      3  C1  UNK     1      46.065   9.388  -9.210  1.00  0.00     0.081 A 
ATOM      4  C2  UNK     1      45.325  10.429  -8.653  1.00  0.00     0.095 A 
ATOM      5  C3  UNK     1      47.153  11.116  -7.310  1.00  0.00     0.090 A 
ATOM      6  C5  UNK     1      47.461   9.202  -8.784  1.00  0.00     0.190 A 
ATOM      7  C6  UNK     1      47.968  10.157  -7.777  1.00  0.00     0.094 A 
ATOM      8  C7  UNK     1      45.489   8.538 -10.157  1.00  0.00     0.085 A 
ATOM      9  C8  UNK     1      44.000  10.628  -9.042  1.00  0.00     0.075 A 
ATOM     10  C9  UNK     1      43.420   9.782  -9.987  1.00  0.00     0.071 A 
ATOM     11  C10 UNK     1      44.163   8.738 -10.543  1.00  0.00     0.074 A 
ENDROOT
BRANCH   5  12
ATOM     12  C4  UNK     1      47.607  12.103  -6.310  1.00  0.00    -0.002 A 
ATOM     13  C12 UNK     1      47.548  11.800  -4.948  1.00  0.00     0.017 A 
ATOM     14  C14 UNK     1      47.976  12.733  -4.004  1.00  0.00     0.037 A 
ATOM     15  C15 UNK     1      48.464  13.972  -4.418  1.00  0.00     0.065 A 
ATOM     16  C13 UNK     1      48.524  14.278  -5.778  1.00  0.00     0.037 A 
ATOM     17  C11 UNK     1      48.096  13.346  -6.723  1.00  0.00     0.017 A 
BRANCH  15  18
ATOM     18  O5  UNK     1      48.881  14.882  -3.497  1.00  0.00    -0.361 OA
ATOM     19  H10 UNK     1      49.063  15.726  -3.947  1.00  0.00     0.217 HD
ENDBRANCH  15  18
ENDBRANCH   5  12
BRANCH   8  20
ATOM     20  O2  UNK     1      46.170   7.508 -10.730  1.00  0.00    -0.360 OA
ATOM     21  H8  UNK     1      46.862   7.844 -11.320  1.00  0.00     0.217 HD
ENDBRANCH   8  20
BRANCH  10  22
ATOM     22  O4  UNK     1      42.127   9.973 -10.368  1.00  0.00    -0.361 OA
ATOM     23  H9  UNK     1      41.630   9.149 -10.224  1.00  0.00     0.217 HD
ENDBRANCH  10  22
TORSDOF 4
ENDMDL
MODEL 6
REMARK VINA RESULT:      -5.6      9.625     11.876
REMARK  4 active torsions:
REMARK  status: ('A' for Active; 'I' for Inactive)
REMARK    1  A    between atoms: O2_2  and  C7_12 
REMARK    2  A    between atoms: O4_4  and  C9_14 
REMARK    3  A    between atoms: O5_5  and  C15_20 
REMARK    4  A    between atoms: C3_8  and  C4_9 
ROOT
ATOM      1  O1  UNK     1      45.839  11.296  -7.718  1.00  0.00    -0.309 OA
ATOM      2  O3  UNK     1      48.192   8.370  -9.298  1.00  0.00    -0.287 OA
ATOM      3  C1  UNK     1      46.072   9.413  -9.234  1.00  0.00     0.081 A 
ATOM      4  C2  UNK     1      45.324  10.435  -8.655  1.00  0.00     0.095 A 
ATOM      5  C3  UNK     1      47.159  11.134  -7.327  1.00  0.00     0.090 A 
ATOM      6  C5  UNK     1      47.477   9.244  -8.829  1.00  0.00     0.190 A 
ATOM      7  C6  UNK     1      47.982  10.193  -7.817  1.00  0.00     0.094 A 
ATOM      8  C7  UNK     1      45.497   8.566 -10.184  1.00  0.00     0.085 A 
ATOM      9  C8  UNK     1      43.991  10.618  -9.023  1.00  0.00     0.075 A 
ATOM     10  C9  UNK     1      43.411   9.775  -9.971  1.00  0.00     0.071 A 
ATOM     11  C10 UNK     1      44.163   8.750 -10.550  1.00  0.00     0.074 A 
ENDROOT
BRANCH   5  12
ATOM     12  C4  UNK     1      47.611  12.115  -6.321  1.00  0.00    -0.002 A 
ATOM     13  C12 UNK     1      48.114  13.354  -6.725  1.00  0.00     0.017 A 
ATOM     14  C14 UNK     1      48.541  14.281  -5.774  1.00  0.00     0.037 A 
ATOM     15  C15 UNK     1      48.468  13.972  -4.416  1.00  0.00     0.065 A 
ATOM     16  C13 UNK     1      47.967  12.735  -4.009  1.00  0.00     0.037 A 
ATOM     17  C11 UNK     1      47.539  11.808  -4.959  1.00  0.00     0.017 A 
BRANCH  15  18
ATOM     18  O5  UNK     1      48.886  14.875  -3.489  1.00  0.00    -0.361 OA
ATOM     19  H10 UNK     1      48.108  15.243  -3.035  1.00  0.00     0.217 HD
ENDBRANCH  15  18
ENDBRANCH   5  12
BRANCH   8  20
ATOM     20  O2  UNK     1      46.186   7.553 -10.779  1.00  0.00    -0.360 OA
ATOM     21  H8  UNK     1      45.696   7.214 -11.544  1.00  0.00     0.217 HD
ENDBRANCH   8  20
BRANCH  10  22
ATOM     22  O4  UNK     1      42.110   9.951 -10.332  1.00  0.00    -0.361 OA
ATOM     23  H9  UNK     1      41.672  10.514  -9.671  1.00  0.00     0.217 HD
ENDBRANCH  10  22
TORSDOF 4
ENDMDL
MODEL 7
REMARK VINA RESULT:      -5.5     10.246     13.114
REMARK  4 active torsions:
REMARK  status: ('A' for Active; 'I' for Inactive)
REMARK    1  A    between atoms: O2_2  and  C7_12 
REMARK    2  A    between atoms: O4_4  and  C9_14 
REMARK    3  A    between atoms: O5_5  and  C15_20 
REMARK    4  A    between atoms: C3_8  and  C4_9 
ROOT
ATOM      1  O1  UNK     1      48.420   9.747  -6.964  1.00  0.00    -0.309 OA
ATOM      2  O3  UNK     1      46.102  10.078 -10.298  1.00  0.00    -0.287 OA
ATOM      3  C1  UNK     1      47.522   8.728  -8.977  1.00  0.00     0.081 A 
ATOM      4  C2  UNK     1      48.297   8.682  -7.820  1.00  0.00     0.095 A 
ATOM      5  C3  UNK     1      47.751  10.922  -7.271  1.00  0.00     0.090 A 
ATOM      6  C5  UNK     1      46.801   9.969  -9.301  1.00  0.00     0.190 A 
ATOM      7  C6  UNK     1      46.969  11.087  -8.350  1.00  0.00     0.094 A 
ATOM      8  C7  UNK     1      47.431   7.612  -9.812  1.00  0.00     0.085 A 
ATOM      9  C8  UNK     1      48.988   7.517  -7.489  1.00  0.00     0.075 A 
ATOM     10  C9  UNK     1      48.902   6.399  -8.320  1.00  0.00     0.071 A 
ATOM     11  C10 UNK     1      48.125   6.447  -9.480  1.00  0.00     0.074 A 
ENDROOT
BRANCH   5  12
ATOM     12  C4  UNK     1      47.948  12.000  -6.282  1.00  0.00    -0.002 A 
ATOM     13  C12 UNK     1      47.750  11.750  -4.922  1.00  0.00     0.017 A 
ATOM     14  C14 UNK     1      47.936  12.770  -3.988  1.00  0.00     0.037 A 
ATOM     15  C15 UNK     1      48.320  14.042  -4.411  1.00  0.00     0.065 A 
ATOM     16  C13 UNK     1      48.517  14.296  -5.768  1.00  0.00     0.037 A 
ATOM     17  C11 UNK     1      48.332  13.277  -6.703  1.00  0.00     0.017 A 
BRANCH  15  18
ATOM     18  O5  UNK     1      48.500  15.036  -3.500  1.00  0.00    -0.361 OA
ATOM     19  H10 UNK     1      48.615  15.879  -3.972  1.00  0.00     0.217 HD
ENDBRANCH  15  18
ENDBRANCH   5  12
BRANCH   8  20
ATOM     20  O2  UNK     1      46.688   7.606 -10.953  1.00  0.00    -0.360 OA
ATOM     21  H8  UNK     1      47.212   7.931 -11.701  1.00  0.00     0.217 HD
ENDBRANCH   8  20
BRANCH  10  22
ATOM     22  O4  UNK     1      49.575   5.260  -8.000  1.00  0.00    -0.361 OA
ATOM     23  H9  UNK     1      49.264   4.538  -8.573  1.00  0.00     0.217 HD
ENDBRANCH  10  22
TORSDOF 4
ENDMDL
MODEL 8
REMARK VINA RESULT:      -5.5     10.247     13.136
REMARK  4 active torsions:
REMARK  status: ('A' for Active; 'I' for Inactive)
REMARK    1  A    between atoms: O2_2  and  C7_12 
REMARK    2  A    between atoms: O4_4  and  C9_14 
REMARK    3  A    between atoms: O5_5  and  C15_20 
REMARK    4  A    between atoms: C3_8  and  C4_9 
ROOT
ATOM      1  O1  UNK     1      48.418   9.749  -6.967  1.00  0.00    -0.309 OA
ATOM      2  O3  UNK     1      46.107  10.082 -10.306  1.00  0.00    -0.287 OA
ATOM      3  C1  UNK     1      47.523   8.731  -8.982  1.00  0.00     0.081 A 
ATOM      4  C2  UNK     1      48.295   8.684  -7.823  1.00  0.00     0.095 A 
ATOM      5  C3  UNK     1      47.750  10.925  -7.275  1.00  0.00     0.090 A 
ATOM      6  C5  UNK     1      46.804   9.973  -9.308  1.00  0.00     0.190 A 
ATOM      7  C6  UNK     1      46.971  11.091  -8.356  1.00  0.00     0.094 A 
ATOM      8  C7  UNK     1      47.433   7.615  -9.817  1.00  0.00     0.085 A 
ATOM      9  C8  UNK     1      48.985   7.518  -7.491  1.00  0.00     0.075 A 
ATOM     10  C9  UNK     1      48.899   6.401  -8.322  1.00  0.00     0.071 A 
ATOM     11  C10 UNK     1      48.125   6.449  -9.483  1.00  0.00     0.074 A 
ENDROOT
BRANCH   5  12
ATOM     12  C4  UNK     1      47.946  12.003  -6.286  1.00  0.00    -0.002 A 
ATOM     13  C12 UNK     1      48.329  13.279  -6.705  1.00  0.00     0.017 A 
ATOM     14  C14 UNK     1      48.514  14.297  -5.769  1.00  0.00     0.037 A 
ATOM     15  C15 UNK     1      48.318  14.042  -4.412  1.00  0.00     0.065 A 
ATOM     16  C13 UNK     1      47.936  12.769  -3.990  1.00  0.00     0.037 A 
ATOM     17  C11 UNK     1      47.750  11.750  -4.925  1.00  0.00     0.017 A 
BRANCH  15  18
ATOM     18  O5  UNK     1      48.500  15.035  -3.500  1.00  0.00    -0.361 OA
ATOM     19  H10 UNK     1      47.751  15.654  -3.555  1.00  0.00     0.217 HD
ENDBRANCH  15  18
ENDBRANCH   5  12
BRANCH   8  20
ATOM     20  O2  UNK     1      46.692   7.610 -10.960  1.00  0.00    -0.360 OA
ATOM     21  H8  UNK     1      45.745   7.607 -10.750  1.00  0.00     0.217 HD
ENDBRANCH   8  20
BRANCH  10  22
ATOM     22  O4  UNK     1      49.570   5.261  -8.000  1.00  0.00    -0.361 OA
ATOM     23  H9  UNK     1      50.299   5.134  -8.633  1.00  0.00     0.217 HD
ENDBRANCH  10  22
TORSDOF 4
ENDMDL
MODEL 9
REMARK VINA RESULT:      -5.4      9.834     11.495
REMARK  4 active torsions:
REMARK  status: ('A' for Active; 'I' for Inactive)
REMARK    1  A    between atoms: O2_2  and  C7_12 
REMARK    2  A    between atoms: O4_4  and  C9_14 
REMARK    3  A    between atoms: O5_5  and  C15_20 
REMARK    4  A    between atoms: C3_8  and  C4_9 
ROOT
ATOM      1  O1  UNK     1      47.200  12.022  -7.031  1.00  0.00    -0.309 OA
ATOM      2  O3  UNK     1      50.544  12.907  -9.184  1.00  0.00    -0.287 OA
ATOM      3  C1  UNK     1      49.315  13.207  -7.188  1.00  0.00     0.081 A 
ATOM      4  C2  UNK     1      48.150  12.862  -6.506  1.00  0.00     0.095 A 
ATOM      5  C3  UNK     1      47.407  11.502  -8.299  1.00  0.00     0.090 A 
ATOM      6  C5  UNK     1      49.543  12.649  -8.530  1.00  0.00     0.190 A 
ATOM      7  C6  UNK     1      48.491  11.753  -9.052  1.00  0.00     0.094 A 
ATOM      8  C7  UNK     1      50.248  14.066  -6.605  1.00  0.00     0.085 A 
ATOM      9  C8  UNK     1      47.911  13.376  -5.231  1.00  0.00     0.075 A 
ATOM     10  C9  UNK     1      48.840  14.235  -4.644  1.00  0.00     0.071 A 
ATOM     11  C10 UNK     1      50.006  14.580  -5.330  1.00  0.00     0.074 A 
ENDROOT
BRANCH   5  12
ATOM     12  C4  UNK     1      46.329  10.608  -8.764  1.00  0.00    -0.002 A 
ATOM     13  C12 UNK     1      46.639   9.382  -9.356  1.00  0.00     0.017 A 
ATOM     14  C14 UNK     1      45.619   8.538  -9.796  1.00  0.00     0.037 A 
ATOM     15  C15 UNK     1      44.285   8.917  -9.644  1.00  0.00     0.065 A 
ATOM     16  C13 UNK     1      43.972  10.141  -9.054  1.00  0.00     0.037 A 
ATOM     17  C11 UNK     1      44.991  10.985  -8.613  1.00  0.00     0.017 A 
BRANCH  15  18
ATOM     18  O5  UNK     1      43.291   8.093 -10.074  1.00  0.00    -0.361 OA
ATOM     19  H10 UNK     1      43.446   7.201  -9.718  1.00  0.00     0.217 HD
ENDBRANCH  15  18
ENDBRANCH   5  12
BRANCH   8  20
ATOM     20  O2  UNK     1      51.401  14.433  -7.230  1.00  0.00    -0.360 OA
ATOM     21  H8  UNK     1      51.244  15.188  -7.817  1.00  0.00     0.217 HD
ENDBRANCH   8  20
BRANCH  10  22
ATOM     22  O4  UNK     1      48.609  14.738  -3.400  1.00  0.00    -0.361 OA
ATOM     23  H9  UNK     1      48.491  15.701  -3.466  1.00  0.00     0.217 HD
ENDBRANCH  10  22
TORSDOF 4
ENDMDL
MODEL 10
REMARK VINA RESULT:      -5.3     10.181     11.466
REMARK  4 active torsions:
REMARK  status: ('A' for Active; 'I' for Inactive)
REMARK    1  A    between atoms: O2_2  and  C7_12 
REMARK    2  A    between atoms: O4_4  and  C9_14 
REMARK    3  A    between atoms: O5_5  and  C15_20 
REMARK    4  A    between atoms: C3_8  and  C4_9 
ROOT
ATOM      1  O1  UNK     1      46.282  11.342  -7.541  1.00  0.00    -0.309 OA
ATOM      2  O3  UNK     1      48.413  12.228 -10.899  1.00  0.00    -0.287 OA
ATOM      3  C1  UNK     1      46.366  11.511  -9.963  1.00  0.00     0.081 A 
ATOM      4  C2  UNK     1      45.695  11.225  -8.776  1.00  0.00     0.095 A 
ATOM      5  C3  UNK     1      47.605  11.754  -7.476  1.00  0.00     0.090 A 
ATOM      6  C5  UNK     1      47.766  11.958  -9.898  1.00  0.00     0.190 A 
ATOM      7  C6  UNK     1      48.353  12.065  -8.546  1.00  0.00     0.094 A 
ATOM      8  C7  UNK     1      45.717  11.375 -11.192  1.00  0.00     0.085 A 
ATOM      9  C8  UNK     1      44.366  10.801  -8.810  1.00  0.00     0.075 A 
ATOM     10  C9  UNK     1      43.713  10.664 -10.035  1.00  0.00     0.071 A 
ATOM     11  C10 UNK     1      44.388  10.950 -11.225  1.00  0.00     0.074 A 
ENDROOT
BRANCH   5  12
ATOM     12  C4  UNK     1      48.135  11.851  -6.102  1.00  0.00    -0.002 A 
ATOM     13  C12 UNK     1      48.648  10.719  -5.466  1.00  0.00     0.017 A 
ATOM     14  C14 UNK     1      49.148  10.811  -4.167  1.00  0.00     0.037 A 
ATOM     15  C15 UNK     1      49.138  12.036  -3.500  1.00  0.00     0.065 A 
ATOM     16  C13 UNK     1      48.625  13.169  -4.132  1.00  0.00     0.037 A 
ATOM     17  C11 UNK     1      48.125  13.078  -5.431  1.00  0.00     0.017 A 
BRANCH  15  18
ATOM     18  O5  UNK     1      49.625  12.125  -2.233  1.00  0.00    -0.361 OA
ATOM     19  H10 UNK     1      49.315  11.357  -1.722  1.00  0.00     0.217 HD
ENDBRANCH  15  18
ENDBRANCH   5  12
BRANCH   8  20
ATOM     20  O2  UNK     1      46.328  11.642 -12.379  1.00  0.00    -0.360 OA
ATOM     21  H8  UNK     1      46.382  10.839 -12.921  1.00  0.00     0.217 HD
ENDBRANCH   8  20
BRANCH  10  22
ATOM     22  O4  UNK     1      42.417  10.250 -10.073  1.00  0.00    -0.361 OA
ATOM     23  H9  UNK     1      42.318   9.467  -9.503  1.00  0.00     0.217 HD
ENDBRANCH  10  22
TORSDOF 4
ENDMDL
MODEL 11
REMARK VINA RESULT:      -5.3     10.195     12.309
REMARK  4 active torsions:
REMARK  status: ('A' for Active; 'I' for Inactive)
REMARK    1  A    between atoms: O2_2  and  C7_12 
REMARK    2  A    between atoms: O4_4  and  C9_14 
REMARK    3  A    between atoms: O5_5  and  C15_20 
REMARK    4  A    between atoms: C3_8  and  C4_9 
ROOT
ATOM      1  O1  UNK     1      47.843  11.460  -6.063  1.00  0.00    -0.309 OA
ATOM      2  O3  UNK     1      50.838   8.925  -7.159  1.00  0.00    -0.287 OA
ATOM      3  C1  UNK     1      49.884  10.282  -5.476  1.00  0.00     0.081 A 
ATOM      4  C2  UNK     1      48.831  11.141  -5.167  1.00  0.00     0.095 A 
ATOM      5  C3  UNK     1      47.901  10.910  -7.334  1.00  0.00     0.090 A 
ATOM      6  C5  UNK     1      49.944   9.688  -6.821  1.00  0.00     0.190 A 
ATOM      7  C6  UNK     1      48.859  10.065  -7.749  1.00  0.00     0.094 A 
ATOM      8  C7  UNK     1      50.863   9.992  -4.524  1.00  0.00     0.085 A 
ATOM      9  C8  UNK     1      48.750  11.716  -3.899  1.00  0.00     0.075 A 
ATOM     10  C9  UNK     1      49.725  11.429  -2.943  1.00  0.00     0.071 A 
ATOM     11  C10 UNK     1      50.780  10.569  -3.255  1.00  0.00     0.074 A 
ENDROOT
BRANCH   5  12
ATOM     12  C4  UNK     1      46.787  11.314  -8.215  1.00  0.00    -0.002 A 
ATOM     13  C12 UNK     1      45.481  11.354  -7.721  1.00  0.00     0.017 A 
ATOM     14  C14 UNK     1      44.429  11.736  -8.554  1.00  0.00     0.037 A 
ATOM     15  C15 UNK     1      44.679  12.079  -9.882  1.00  0.00     0.065 A 
ATOM     16  C13 UNK     1      45.982  12.040 -10.379  1.00  0.00     0.037 A 
ATOM     17  C11 UNK     1      47.035  11.659  -9.547  1.00  0.00     0.017 A 
BRANCH  15  18
ATOM     18  O5  UNK     1      43.653  12.451 -10.694  1.00  0.00    -0.361 OA
ATOM     19  H10 UNK     1      43.495  11.745 -11.345  1.00  0.00     0.217 HD
ENDBRANCH  15  18
ENDBRANCH   5  12
BRANCH   8  20
ATOM     20  O2  UNK     1      51.911   9.159  -4.776  1.00  0.00    -0.360 OA
ATOM     21  H8  UNK     1      52.526   9.569  -5.404  1.00  0.00     0.217 HD
ENDBRANCH   8  20
BRANCH  10  22
ATOM     22  O4  UNK     1      49.649  11.989  -1.704  1.00  0.00    -0.361 OA
ATOM     23  H9  UNK     1      48.744  12.313  -1.560  1.00  0.00     0.217 HD
ENDBRANCH  10  22
TORSDOF 4
ENDMDL
MODEL 12
REMARK VINA RESULT:      -5.3      9.990     11.619
REMARK  4 active torsions:
REMARK  status: ('A' for Active; 'I' for Inactive)
REMARK    1  A    between atoms: O2_2  and  C7_12 
REMARK    2  A    between atoms: O4_4  and  C9_14 
REMARK    3  A    between atoms: O5_5  and  C15_20 
REMARK    4  A    between atoms: C3_8  and  C4_9 
ROOT
ATOM      1  O1  UNK     1      46.602  11.581  -7.524  1.00  0.00    -0.309 OA
ATOM      2  O3  UNK     1      48.413   9.067 -10.169  1.00  0.00    -0.287 OA
ATOM      3  C1  UNK     1      46.634  10.558  -9.726  1.00  0.00     0.081 A 
ATOM      4  C2  UNK     1      46.066  11.402  -8.775  1.00  0.00     0.095 A 
ATOM      5  C3  UNK     1      47.753  10.883  -7.192  1.00  0.00     0.090 A 
ATOM      6  C5  UNK     1      47.861   9.823  -9.382  1.00  0.00     0.190 A 
ATOM      7  C6  UNK     1      48.396  10.047  -8.024  1.00  0.00     0.094 A 
ATOM      8  C7  UNK     1      46.046  10.415 -10.985  1.00  0.00     0.085 A 
ATOM      9  C8  UNK     1      44.904  12.112  -9.077  1.00  0.00     0.075 A 
ATOM     10  C9  UNK     1      44.313  11.973 -10.332  1.00  0.00     0.071 A 
ATOM     11  C10 UNK     1      44.882  11.125 -11.285  1.00  0.00     0.074 A 
ENDROOT
BRANCH   5  12
ATOM     12  C4  UNK     1      48.246  11.153  -5.827  1.00  0.00    -0.002 A 
ATOM     13  C12 UNK     1      47.827  12.297  -5.143  1.00  0.00     0.017 A 
ATOM     14  C14 UNK     1      48.294  12.552  -3.854  1.00  0.00     0.037 A 
ATOM     15  C15 UNK     1      49.180  11.664  -3.244  1.00  0.00     0.065 A 
ATOM     16  C13 UNK     1      49.601  10.521  -3.924  1.00  0.00     0.037 A 
ATOM     17  C11 UNK     1      49.134  10.265  -5.214  1.00  0.00     0.017 A 
BRANCH  15  18
ATOM     18  O5  UNK     1      49.636  11.914  -1.986  1.00  0.00    -0.361 OA
ATOM     19  H10 UNK     1      49.666  11.077  -1.491  1.00  0.00     0.217 HD
ENDBRANCH  15  18
ENDBRANCH   5  12
BRANCH   8  20
ATOM     20  O2  UNK     1      46.561   9.603 -11.949  1.00  0.00    -0.360 OA
ATOM     21  H8  UNK     1      47.528   9.678 -11.975  1.00  0.00     0.217 HD
ENDBRANCH   8  20
BRANCH  10  22
ATOM     22  O4  UNK     1      43.178  12.664 -10.631  1.00  0.00    -0.361 OA
ATOM     23  H9  UNK     1      42.440  12.298 -10.113  1.00  0.00     0.217 HD
ENDBRANCH  10  22
TORSDOF 4
ENDMDL
MODEL 13
REMARK VINA RESULT:      -5.2     11.177     13.531
REMARK  4 active torsions:
REMARK  status: ('A' for Active; 'I' for Inactive)
REMARK    1  A    between atoms: O2_2  and  C7_12 
REMARK    2  A    between atoms: O4_4  and  C9_14 
REMARK    3  A    between atoms: O5_5  and  C15_20 
REMARK    4  A    between atoms: C3_8  and  C4_9 
ROOT
ATOM      1  O1  UNK     1      52.118  11.204  -2.537  1.00  0.00    -0.309 OA
ATOM      2  O3  UNK     1      50.830  11.658   1.301  1.00  0.00    -0.287 OA
ATOM      3  C1  UNK     1      52.658  11.490  -0.187  1.00  0.00     0.081 A 
ATOM      4  C2  UNK     1      53.030  11.332  -1.520  1.00  0.00     0.095 A 
ATOM      5  C3  UNK     1      50.768  11.223  -2.220  1.00  0.00     0.090 A 
ATOM      6  C5  UNK     1      51.227  11.521   0.153  1.00  0.00     0.190 A 
ATOM      7  C6  UNK     1      50.286  11.375  -0.976  1.00  0.00     0.094 A 
ATOM      8  C7  UNK     1      53.630  11.617   0.808  1.00  0.00     0.085 A 
ATOM      9  C8  UNK     1      54.380  11.302  -1.869  1.00  0.00     0.075 A 
ATOM     10  C9  UNK     1      55.355  11.429  -0.879  1.00  0.00     0.071 A 
ATOM     11  C10 UNK     1      54.981  11.585   0.457  1.00  0.00     0.074 A 
ENDROOT
BRANCH   5  12
ATOM     12  C4  UNK     1      49.876  11.082  -3.388  1.00  0.00    -0.002 A 
ATOM     13  C12 UNK     1      48.824  11.981  -3.580  1.00  0.00     0.017 A 
ATOM     14  C14 UNK     1      47.981  11.847  -4.683  1.00  0.00     0.037 A 
ATOM     15  C15 UNK     1      48.187  10.815  -5.598  1.00  0.00     0.065 A 
ATOM     16  C13 UNK     1      49.236   9.915  -5.409  1.00  0.00     0.037 A 
ATOM     17  C11 UNK     1      50.080  10.049  -4.306  1.00  0.00     0.017 A 
BRANCH  15  18
ATOM     18  O5  UNK     1      47.364  10.684  -6.673  1.00  0.00    -0.361 OA
ATOM     19  H10 UNK     1      46.442  10.657  -6.363  1.00  0.00     0.217 HD
ENDBRANCH  15  18
ENDBRANCH   5  12
BRANCH   8  20
ATOM     20  O2  UNK     1      53.319  11.773   2.124  1.00  0.00    -0.360 OA
ATOM     21  H8  UNK     1      53.854  12.479   2.519  1.00  0.00     0.217 HD
ENDBRANCH   8  20
BRANCH  10  22
ATOM     22  O4  UNK     1      56.674  11.399  -1.216  1.00  0.00    -0.361 OA
ATOM     23  H9  UNK     1      56.819  11.990  -1.975  1.00  0.00     0.217 HD
ENDBRANCH  10  22
TORSDOF 4
ENDMDL
MODEL 14
REMARK VINA RESULT:      -5.2     10.638     12.892
REMARK  4 active torsions:
REMARK  status: ('A' for Active; 'I' for Inactive)
REMARK    1  A    between atoms: O2_2  and  C7_12 
REMARK    2  A    between atoms: O4_4  and  C9_14 
REMARK    3  A    between atoms: O5_5  and  C15_20 
REMARK    4  A    between atoms: C3_8  and  C4_9 
ROOT
ATOM      1  O1  UNK     1      51.117  10.113  -3.772  1.00  0.00    -0.309 OA
ATOM      2  O3  UNK     1      47.511  11.736  -4.751  1.00  0.00    -0.287 OA
ATOM      3  C1  UNK     1      49.308  10.335  -5.377  1.00  0.00     0.081 A 
ATOM      4  C2  UNK     1      50.537   9.814  -4.979  1.00  0.00     0.095 A 
ATOM      5  C3  UNK     1      50.453  10.978  -2.916  1.00  0.00     0.090 A 
ATOM      6  C5  UNK     1      48.594  11.245  -4.467  1.00  0.00     0.190 A 
ATOM      7  C6  UNK     1      49.261  11.538  -3.182  1.00  0.00     0.094 A 
ATOM      8  C7  UNK     1      48.764   9.995  -6.617  1.00  0.00     0.085 A 
ATOM      9  C8  UNK     1      51.233   8.947  -5.822  1.00  0.00     0.075 A 
ATOM     10  C9  UNK     1      50.694   8.605  -7.062  1.00  0.00     0.071 A 
ATOM     11  C10 UNK     1      49.462   9.128  -7.460  1.00  0.00     0.074 A 
ENDROOT
BRANCH   5  12
ATOM     12  C4  UNK     1      51.162  11.226  -1.646  1.00  0.00    -0.002 A 
ATOM     13  C12 UNK     1      50.441  11.503  -0.482  1.00  0.00     0.017 A 
ATOM     14  C14 UNK     1      51.111  11.738   0.718  1.00  0.00     0.037 A 
ATOM     15  C15 UNK     1      52.505  11.698   0.759  1.00  0.00     0.065 A 
ATOM     16  C13 UNK     1      53.228  11.423  -0.401  1.00  0.00     0.037 A 
ATOM     17  C11 UNK     1      52.558  11.187  -1.602  1.00  0.00     0.017 A 
BRANCH  15  18
ATOM     18  O5  UNK     1      53.158  11.928   1.930  1.00  0.00    -0.361 OA
ATOM     19  H10 UNK     1      53.316  12.884   2.019  1.00  0.00     0.217 HD
ENDBRANCH  15  18
ENDBRANCH   5  12
BRANCH   8  20
ATOM     20  O2  UNK     1      47.566  10.476  -7.052  1.00  0.00    -0.360 OA
ATOM     21  H8  UNK     1      47.227  11.147  -6.439  1.00  0.00     0.217 HD
ENDBRANCH   8  20
BRANCH  10  22
ATOM     22  O4  UNK     1      51.370   7.759  -7.887  1.00  0.00    -0.361 OA
ATOM     23  H9  UNK     1      52.325   7.916  -7.787  1.00  0.00     0.217 HD
ENDBRANCH  10  22
TORSDOF 4
ENDMDL
