MODEL 1
REMARK VINA RESULT:      -6.1      0.000      0.000
REMARK  4 active torsions:
REMARK  status: ('A' for Active; 'I' for Inactive)
REMARK    1  A    between atoms: O2_2  and  C7_12 
REMARK    2  A    between atoms: O4_4  and  C9_14 
REMARK    3  A    between atoms: O5_5  and  C15_20 
REMARK    4  A    between atoms: C3_8  and  C4_9 
ROOT
ATOM      1  O1  UNK     1      38.958  22.054  11.028  1.00  0.00    -0.309 OA
ATOM      2  O3  UNK     1      37.788  19.599  14.062  1.00  0.00    -0.287 OA
ATOM      3  C1  UNK     1      39.377  20.080  12.380  1.00  0.00     0.081 A 
ATOM      4  C2  UNK     1      39.719  20.960  11.356  1.00  0.00     0.095 A 
ATOM      5  C3  UNK     1      37.794  22.286  11.744  1.00  0.00     0.090 A 
ATOM      6  C5  UNK     1      38.147  20.329  13.149  1.00  0.00     0.190 A 
ATOM      7  C6  UNK     1      37.362  21.517  12.756  1.00  0.00     0.094 A 
ATOM      8  C7  UNK     1      40.190  18.982  12.671  1.00  0.00     0.085 A 
ATOM      9  C8  UNK     1      40.881  20.747  10.613  1.00  0.00     0.075 A 
ATOM     10  C9  UNK     1      41.697  19.652  10.899  1.00  0.00     0.071 A 
ATOM     11  C10 UNK     1      41.351  18.771  11.926  1.00  0.00     0.074 A 
ENDROOT
BRANCH   5  12
ATOM     12  C4  UNK     1      37.056  23.490  11.313  1.00  0.00    -0.002 A 
ATOM     13  C12 UNK     1      36.031  23.386  10.371  1.00  0.00     0.017 A 
ATOM     14  C14 UNK     1      35.335  24.524   9.964  1.00  0.00     0.037 A 
ATOM     15  C15 UNK     1      35.661  25.771  10.499  1.00  0.00     0.065 A 
ATOM     16  C13 UNK     1      36.685  25.879  11.439  1.00  0.00     0.037 A 
ATOM     17  C11 UNK     1      37.382  24.741  11.847  1.00  0.00     0.017 A 
BRANCH  15  18
ATOM     18  O5  UNK     1      34.983  26.881  10.101  1.00  0.00    -0.361 OA
ATOM     19  H10 UNK     1      35.564  27.420   9.536  1.00  0.00     0.217 HD
ENDBRANCH  15  18
ENDBRANCH   5  12
BRANCH   8  20
ATOM     20  O2  UNK     1      39.899  18.094  13.661  1.00  0.00    -0.360 OA
ATOM     21  H8  UNK     1      39.095  17.596  13.446  1.00  0.00     0.217 HD
ENDBRANCH   8  20
BRANCH  10  22
ATOM     22  O4  UNK     1      42.831  19.442  10.176  1.00  0.00    -0.361 OA
ATOM     23  H9  UNK     1      42.659  18.753   9.512  1.00  0.00     0.217 HD
ENDBRANCH  10  22
TORSDOF 4
ENDMDL
MODEL 2
REMARK VINA RESULT:      -6.0      2.117      6.873
REMARK  4 active torsions:
REMARK  status: ('A' for Active; 'I' for Inactive)
REMARK    1  A    between atoms: O2_2  and  C7_12 
REMARK    2  A    between atoms: O4_4  and  C9_14 
REMARK    3  A    between atoms: O5_5  and  C15_20 
REMARK    4  A    between atoms: C3_8  and  C4_9 
ROOT
ATOM      1  O1  UNK     1      36.686  23.258  10.678  1.00  0.00    -0.309 OA
ATOM      2  O3  UNK     1      34.444  22.774  14.045  1.00  0.00    -0.287 OA
ATOM      3  C1  UNK     1      34.779  23.942  12.018  1.00  0.00     0.081 A 
ATOM      4  C2  UNK     1      35.588  24.053  10.889  1.00  0.00     0.095 A 
ATOM      5  C3  UNK     1      37.008  22.309  11.636  1.00  0.00     0.090 A 
ATOM      6  C5  UNK     1      35.111  22.929  13.032  1.00  0.00     0.190 A 
ATOM      7  C6  UNK     1      36.304  22.100  12.760  1.00  0.00     0.094 A 
ATOM      8  C7  UNK     1      33.672  24.777  12.180  1.00  0.00     0.085 A 
ATOM      9  C8  UNK     1      35.294  25.004   9.912  1.00  0.00     0.075 A 
ATOM     10  C9  UNK     1      34.189  25.841  10.069  1.00  0.00     0.071 A 
ATOM     11  C10 UNK     1      33.380  25.729  11.202  1.00  0.00     0.074 A 
ENDROOT
BRANCH   5  12
ATOM     12  C4  UNK     1      38.202  21.506  11.307  1.00  0.00    -0.002 A 
ATOM     13  C12 UNK     1      38.745  21.549  10.020  1.00  0.00     0.017 A 
ATOM     14  C14 UNK     1      39.873  20.789   9.710  1.00  0.00     0.037 A 
ATOM     15  C15 UNK     1      40.462  19.985  10.685  1.00  0.00     0.065 A 
ATOM     16  C13 UNK     1      39.923  19.939  11.970  1.00  0.00     0.037 A 
ATOM     17  C11 UNK     1      38.795  20.698  12.282  1.00  0.00     0.017 A 
BRANCH  15  18
ATOM     18  O5  UNK     1      41.562  19.243  10.381  1.00  0.00    -0.361 OA
ATOM     19  H10 UNK     1      41.503  18.959   9.453  1.00  0.00     0.217 HD
ENDBRANCH  15  18
ENDBRANCH   5  12
BRANCH   8  20
ATOM     20  O2  UNK     1      32.851  24.708  13.265  1.00  0.00    -0.360 OA
ATOM     21  H8  UNK     1      32.417  23.842  13.306  1.00  0.00     0.217 HD
ENDBRANCH   8  20
BRANCH  10  22
ATOM     22  O4  UNK     1      33.899  26.771   9.117  1.00  0.00    -0.361 OA
ATOM     23  H9  UNK     1      34.242  27.635   9.404  1.00  0.00     0.217 HD
ENDBRANCH  10  22
TORSDOF 4
ENDMDL
MODEL 3
REMARK VINA RESULT:      -5.8      4.300      5.504
REMARK  4 active torsions:
REMARK  status: ('A' for Active; 'I' for Inactive)
REMARK    1  A    between atoms: O2_2  and  C7_12 
REMARK    2  A    between atoms: O4_4  and  C9_14 
REMARK    3  A    between atoms: O5_5  and  C15_20 
REMARK    4  A    between atoms: C3_8  and  C4_9 
ROOT
ATOM      1  O1  UNK     1      41.650  21.458  12.370  1.00  0.00    -0.309 OA
ATOM      2  O3  UNK     1      44.242  18.752  10.772  1.00  0.00    -0.287 OA
ATOM      3  C1  UNK     1      42.288  19.138  12.043  1.00  0.00     0.081 A 
ATOM      4  C2  UNK     1      41.441  20.115  12.560  1.00  0.00     0.095 A 
ATOM      5  C3  UNK     1      42.758  21.857  11.638  1.00  0.00     0.090 A 
ATOM      6  C5  UNK     1      43.459  19.556  11.257  1.00  0.00     0.190 A 
ATOM      7  C6  UNK     1      43.642  21.012  11.083  1.00  0.00     0.094 A 
ATOM      8  C7  UNK     1      42.026  17.784  12.267  1.00  0.00     0.085 A 
ATOM      9  C8  UNK     1      40.322  19.745  13.307  1.00  0.00     0.075 A 
ATOM     10  C9  UNK     1      40.056  18.395  13.534  1.00  0.00     0.071 A 
ATOM     11  C10 UNK     1      40.906  17.416  13.015  1.00  0.00     0.074 A 
ENDROOT
BRANCH   5  12
ATOM     12  C4  UNK     1      42.884  23.320  11.490  1.00  0.00    -0.002 A 
ATOM     13  C12 UNK     1      42.369  24.172  12.469  1.00  0.00     0.017 A 
ATOM     14  C14 UNK     1      42.487  25.554  12.329  1.00  0.00     0.037 A 
ATOM     15  C15 UNK     1      43.122  26.090  11.208  1.00  0.00     0.065 A 
ATOM     16  C13 UNK     1      43.637  25.243  10.227  1.00  0.00     0.037 A 
ATOM     17  C11 UNK     1      43.519  23.860  10.368  1.00  0.00     0.017 A 
BRANCH  15  18
ATOM     18  O5  UNK     1      43.236  27.439  11.071  1.00  0.00    -0.361 OA
ATOM     19  H10 UNK     1      43.380  27.649  10.131  1.00  0.00     0.217 HD
ENDBRANCH  15  18
ENDBRANCH   5  12
BRANCH   8  20
ATOM     20  O2  UNK     1      42.822  16.791  11.783  1.00  0.00    -0.360 OA
ATOM     21  H8  UNK     1      43.740  17.096  11.715  1.00  0.00     0.217 HD
ENDBRANCH   8  20
BRANCH  10  22
ATOM     22  O4  UNK     1      38.965  18.030  14.262  1.00  0.00    -0.361 OA
ATOM     23  H9  UNK     1      39.105  18.286  15.191  1.00  0.00     0.217 HD
ENDBRANCH  10  22
TORSDOF 4
ENDMDL
MODEL 4
REMARK VINA RESULT:      -5.7      4.299      5.469
REMARK  4 active torsions:
REMARK  status: ('A' for Active; 'I' for Inactive)
REMARK    1  A    between atoms: O2_2  and  C7_12 
REMARK    2  A    between atoms: O4_4  and  C9_14 
REMARK    3  A    between atoms: O5_5  and  C15_20 
REMARK    4  A    between atoms: C3_8  and  C4_9 
ROOT
ATOM      1  O1  UNK     1      41.642  21.467  12.390  1.00  0.00    -0.309 OA
ATOM      2  O3  UNK     1      44.236  18.760  10.797  1.00  0.00    -0.287 OA
ATOM      3  C1  UNK     1      42.277  19.146  12.060  1.00  0.00     0.081 A 
ATOM      4  C2  UNK     1      41.430  20.124  12.576  1.00  0.00     0.095 A 
ATOM      5  C3  UNK     1      42.754  21.866  11.665  1.00  0.00     0.090 A 
ATOM      6  C5  UNK     1      43.453  19.565  11.280  1.00  0.00     0.190 A 
ATOM      7  C6  UNK     1      43.639  21.020  11.112  1.00  0.00     0.094 A 
ATOM      8  C7  UNK     1      42.011  17.793  12.279  1.00  0.00     0.085 A 
ATOM      9  C8  UNK     1      40.307  19.754  13.316  1.00  0.00     0.075 A 
ATOM     10  C9  UNK     1      40.036  18.404  13.538  1.00  0.00     0.071 A 
ATOM     11  C10 UNK     1      40.888  17.425  13.021  1.00  0.00     0.074 A 
ENDROOT
BRANCH   5  12
ATOM     12  C4  UNK     1      42.884  23.329  11.522  1.00  0.00    -0.002 A 
ATOM     13  C12 UNK     1      43.531  23.872  10.409  1.00  0.00     0.017 A 
ATOM     14  C14 UNK     1      43.654  25.254  10.275  1.00  0.00     0.037 A 
ATOM     15  C15 UNK     1      43.130  26.100  11.253  1.00  0.00     0.065 A 
ATOM     16  C13 UNK     1      42.484  25.562  12.366  1.00  0.00     0.037 A 
ATOM     17  C11 UNK     1      42.360  24.179  12.500  1.00  0.00     0.017 A 
BRANCH  15  18
ATOM     18  O5  UNK     1      43.251  27.449  11.122  1.00  0.00    -0.361 OA
ATOM     19  H10 UNK     1      42.876  27.877  11.911  1.00  0.00     0.217 HD
ENDBRANCH  15  18
ENDBRANCH   5  12
BRANCH   8  20
ATOM     20  O2  UNK     1      42.808  16.800  11.796  1.00  0.00    -0.360 OA
ATOM     21  H8  UNK     1      42.349  15.946  11.837  1.00  0.00     0.217 HD
ENDBRANCH   8  20
BRANCH  10  22
ATOM     22  O4  UNK     1      38.941  18.039  14.261  1.00  0.00    -0.361 OA
ATOM     23  H9  UNK     1      38.513  17.283  13.824  1.00  0.00     0.217 HD
ENDBRANCH  10  22
TORSDOF 4
ENDMDL
MODEL 5
REMARK VINA RESULT:      -5.6      2.906      4.929
REMARK  4 active torsions:
REMARK  status: ('A' for Active; 'I' for Inactive)
REMARK    1  A    between atoms: O2_2  and  C7_12 
REMARK    2  A    between atoms: O4_4  and  C9_14 
REMARK    3  A    between atoms: O5_5  and  C15_20 
REMARK    4  A    between atoms: C3_8  and  C4_9 
ROOT
ATOM      1  O1  UNK     1      42.722  21.404  10.664  1.00  0.00    -0.309 OA
ATOM      2  O3  UNK     1      43.359  17.544  11.800  1.00  0.00    -0.287 OA
ATOM      3  C1  UNK     1      44.287  19.594  11.080  1.00  0.00     0.081 A 
ATOM      4  C2  UNK     1      43.999  20.903  10.702  1.00  0.00     0.095 A 
ATOM      5  C3  UNK     1      41.673  20.565  11.010  1.00  0.00     0.090 A 
ATOM      6  C5  UNK     1      43.178  18.703  11.457  1.00  0.00     0.190 A 
ATOM      7  C6  UNK     1      41.823  19.288  11.397  1.00  0.00     0.094 A 
ATOM      8  C7  UNK     1      45.607  19.138  11.101  1.00  0.00     0.085 A 
ATOM      9  C8  UNK     1      45.032  21.769  10.342  1.00  0.00     0.075 A 
ATOM     10  C9  UNK     1      46.352  21.319  10.362  1.00  0.00     0.071 A 
ATOM     11  C10 UNK     1      46.639  20.005  10.740  1.00  0.00     0.074 A 
ENDROOT
BRANCH   5  12
ATOM     12  C4  UNK     1      40.345  21.205  10.940  1.00  0.00    -0.002 A 
ATOM     13  C12 UNK     1      39.935  22.083  11.946  1.00  0.00     0.017 A 
ATOM     14  C14 UNK     1      38.680  22.687  11.879  1.00  0.00     0.037 A 
ATOM     15  C15 UNK     1      37.829  22.415  10.808  1.00  0.00     0.065 A 
ATOM     16  C13 UNK     1      38.235  21.538   9.802  1.00  0.00     0.037 A 
ATOM     17  C11 UNK     1      39.491  20.934   9.867  1.00  0.00     0.017 A 
BRANCH  15  18
ATOM     18  O5  UNK     1      36.605  23.004  10.744  1.00  0.00    -0.361 OA
ATOM     19  H10 UNK     1      36.060  22.528  10.094  1.00  0.00     0.217 HD
ENDBRANCH  15  18
ENDBRANCH   5  12
BRANCH   8  20
ATOM     20  O2  UNK     1      45.940  17.868  11.463  1.00  0.00    -0.360 OA
ATOM     21  H8  UNK     1      45.308  17.233  11.094  1.00  0.00     0.217 HD
ENDBRANCH   8  20
BRANCH  10  22
ATOM     22  O4  UNK     1      47.363  22.161  10.011  1.00  0.00    -0.361 OA
ATOM     23  H9  UNK     1      48.206  21.788  10.320  1.00  0.00     0.217 HD
ENDBRANCH  10  22
TORSDOF 4
ENDMDL
MODEL 6
REMARK VINA RESULT:      -5.6      2.906      4.815
REMARK  4 active torsions:
REMARK  status: ('A' for Active; 'I' for Inactive)
REMARK    1  A    between atoms: O2_2  and  C7_12 
REMARK    2  A    between atoms: O4_4  and  C9_14 
REMARK    3  A    between atoms: O5_5  and  C15_20 
REMARK    4  A    between atoms: C3_8  and  C4_9 
ROOT
ATOM      1  O1  UNK     1      42.724  21.407  10.657  1.00  0.00    -0.309 OA
ATOM      2  O3  UNK     1      43.355  17.554  11.820  1.00  0.00    -0.287 OA
ATOM      3  C1  UNK     1      44.286  19.596  11.080  1.00  0.00     0.081 A 
ATOM      4  C2  UNK     1      44.000  20.904  10.694  1.00  0.00     0.095 A 
ATOM      5  C3  UNK     1      41.674  20.573  11.012  1.00  0.00     0.090 A 
ATOM      6  C5  UNK     1      43.176  18.711  11.468  1.00  0.00     0.190 A 
ATOM      7  C6  UNK     1      41.822  19.299  11.409  1.00  0.00     0.094 A 
ATOM      8  C7  UNK     1      45.604  19.137  11.100  1.00  0.00     0.085 A 
ATOM      9  C8  UNK     1      45.034  21.764  10.324  1.00  0.00     0.075 A 
ATOM     10  C9  UNK     1      46.353  21.310  10.341  1.00  0.00     0.071 A 
ATOM     11  C10 UNK     1      46.638  19.999  10.729  1.00  0.00     0.074 A 
ENDROOT
BRANCH   5  12
ATOM     12  C4  UNK     1      40.347  21.217  10.942  1.00  0.00    -0.002 A 
ATOM     13  C12 UNK     1      39.486  20.936   9.879  1.00  0.00     0.017 A 
ATOM     14  C14 UNK     1      38.233  21.545   9.814  1.00  0.00     0.037 A 
ATOM     15  C15 UNK     1      37.837  22.436  10.811  1.00  0.00     0.065 A 
ATOM     16  C13 UNK     1      38.695  22.720  11.873  1.00  0.00     0.037 A 
ATOM     17  C11 UNK     1      39.948  22.111  11.940  1.00  0.00     0.017 A 
BRANCH  15  18
ATOM     18  O5  UNK     1      36.615  23.031  10.746  1.00  0.00    -0.361 OA
ATOM     19  H10 UNK     1      35.954  22.364  10.489  1.00  0.00     0.217 HD
ENDBRANCH  15  18
ENDBRANCH   5  12
BRANCH   8  20
ATOM     20  O2  UNK     1      45.936  17.869  11.471  1.00  0.00    -0.360 OA
ATOM     21  H8  UNK     1      45.339  17.552  12.166  1.00  0.00     0.217 HD
ENDBRANCH   8  20
BRANCH  10  22
ATOM     22  O4  UNK     1      47.365  22.147   9.981  1.00  0.00    -0.361 OA
ATOM     23  H9  UNK     1      47.959  21.678   9.369  1.00  0.00     0.217 HD
ENDBRANCH  10  22
TORSDOF 4
ENDMDL
MODEL 7
REMARK VINA RESULT:      -5.6      3.818      4.451
REMARK  4 active torsions:
REMARK  status: ('A' for Active; 'I' for Inactive)
REMARK    1  A    between atoms: O2_2  and  C7_12 
REMARK    2  A    between atoms: O4_4  and  C9_14 
REMARK    3  A    between atoms: O5_5  and  C15_20 
REMARK    4  A    between atoms: C3_8  and  C4_9 
ROOT
ATOM      1  O1  UNK     1      42.157  21.103  11.912  1.00  0.00    -0.309 OA
ATOM      2  O3  UNK     1      38.799  20.784  14.198  1.00  0.00    -0.287 OA
ATOM      3  C1  UNK     1      40.575  19.686  13.091  1.00  0.00     0.081 A 
ATOM      4  C2  UNK     1      41.715  19.867  12.311  1.00  0.00     0.095 A 
ATOM      5  C3  UNK     1      41.430  22.220  12.298  1.00  0.00     0.090 A 
ATOM      6  C5  UNK     1      39.807  20.869  13.511  1.00  0.00     0.190 A 
ATOM      7  C6  UNK     1      40.321  22.176  13.054  1.00  0.00     0.094 A 
ATOM      8  C7  UNK     1      40.172  18.403  13.468  1.00  0.00     0.085 A 
ATOM      9  C8  UNK     1      42.462  18.762  11.902  1.00  0.00     0.075 A 
ATOM     10  C9  UNK     1      42.064  17.478  12.275  1.00  0.00     0.071 A 
ATOM     11  C10 UNK     1      40.920  17.299  13.057  1.00  0.00     0.074 A 
ENDROOT
BRANCH   5  12
ATOM     12  C4  UNK     1      41.996  23.497  11.821  1.00  0.00    -0.002 A 
ATOM     13  C12 UNK     1      42.814  23.523  10.689  1.00  0.00     0.017 A 
ATOM     14  C14 UNK     1      43.349  24.730  10.239  1.00  0.00     0.037 A 
ATOM     15  C15 UNK     1      43.067  25.915  10.919  1.00  0.00     0.065 A 
ATOM     16  C13 UNK     1      42.251  25.892  12.050  1.00  0.00     0.037 A 
ATOM     17  C11 UNK     1      41.715  24.686  12.500  1.00  0.00     0.017 A 
BRANCH  15  18
ATOM     18  O5  UNK     1      43.589  27.092  10.480  1.00  0.00    -0.361 OA
ATOM     19  H10 UNK     1      44.428  27.257  10.946  1.00  0.00     0.217 HD
ENDBRANCH  15  18
ENDBRANCH   5  12
BRANCH   8  20
ATOM     20  O2  UNK     1      39.067  18.174  14.230  1.00  0.00    -0.360 OA
ATOM     21  H8  UNK     1      39.321  17.859  15.111  1.00  0.00     0.217 HD
ENDBRANCH   8  20
BRANCH  10  22
ATOM     22  O4  UNK     1      42.791  16.398  11.878  1.00  0.00    -0.361 OA
ATOM     23  H9  UNK     1      43.399  16.670  11.168  1.00  0.00     0.217 HD
ENDBRANCH  10  22
TORSDOF 4
ENDMDL
MODEL 8
REMARK VINA RESULT:      -5.5      3.838      7.921
REMARK  4 active torsions:
REMARK  status: ('A' for Active; 'I' for Inactive)
REMARK    1  A    between atoms: O2_2  and  C7_12 
REMARK    2  A    between atoms: O4_4  and  C9_14 
REMARK    3  A    between atoms: O5_5  and  C15_20 
REMARK    4  A    between atoms: C3_8  and  C4_9 
ROOT
ATOM      1  O1  UNK     1      41.507  22.924  12.204  1.00  0.00    -0.309 OA
ATOM      2  O3  UNK     1      44.661  25.189  10.971  1.00  0.00    -0.287 OA
ATOM      3  C1  UNK     1      42.461  25.126  11.833  1.00  0.00     0.081 A 
ATOM      4  C2  UNK     1      41.422  24.293  12.240  1.00  0.00     0.095 A 
ATOM      5  C3  UNK     1      42.676  22.347  11.733  1.00  0.00     0.090 A 
ATOM      6  C5  UNK     1      43.708  24.519  11.342  1.00  0.00     0.190 A 
ATOM      7  C6  UNK     1      43.749  23.042  11.320  1.00  0.00     0.094 A 
ATOM      8  C7  UNK     1      42.320  26.514  11.892  1.00  0.00     0.085 A 
ATOM      9  C8  UNK     1      40.230  24.844  12.712  1.00  0.00     0.075 A 
ATOM     10  C9  UNK     1      40.083  26.230  12.773  1.00  0.00     0.071 A 
ATOM     11  C10 UNK     1      41.126  27.064  12.364  1.00  0.00     0.074 A 
ENDROOT
BRANCH   5  12
ATOM     12  C4  UNK     1      42.663  20.871  11.742  1.00  0.00    -0.002 A 
ATOM     13  C12 UNK     1      43.862  20.158  11.684  1.00  0.00     0.017 A 
ATOM     14  C14 UNK     1      43.848  18.763  11.692  1.00  0.00     0.037 A 
ATOM     15  C15 UNK     1      42.636  18.077  11.757  1.00  0.00     0.065 A 
ATOM     16  C13 UNK     1      41.436  18.786  11.814  1.00  0.00     0.037 A 
ATOM     17  C11 UNK     1      41.449  20.181  11.806  1.00  0.00     0.017 A 
BRANCH  15  18
ATOM     18  O5  UNK     1      42.623  16.717  11.764  1.00  0.00    -0.361 OA
ATOM     19  H10 UNK     1      42.573  16.407  12.685  1.00  0.00     0.217 HD
ENDBRANCH  15  18
ENDBRANCH   5  12
BRANCH   8  20
ATOM     20  O2  UNK     1      43.306  27.371  11.507  1.00  0.00    -0.360 OA
ATOM     21  H8  UNK     1      44.096  27.248  12.055  1.00  0.00     0.217 HD
ENDBRANCH   8  20
BRANCH  10  22
ATOM     22  O4  UNK     1      38.922  26.771  13.233  1.00  0.00    -0.361 OA
ATOM     23  H9  UNK     1      39.126  27.392  13.953  1.00  0.00     0.217 HD
ENDBRANCH  10  22
TORSDOF 4
ENDMDL
MODEL 9
REMARK VINA RESULT:      -5.5      1.811      3.617
REMARK  4 active torsions:
REMARK  status: ('A' for Active; 'I' for Inactive)
REMARK    1  A    between atoms: O2_2  and  C7_12 
REMARK    2  A    between atoms: O4_4  and  C9_14 
REMARK    3  A    between atoms: O5_5  and  C15_20 
REMARK    4  A    between atoms: C3_8  and  C4_9 
ROOT
ATOM      1  O1  UNK     1      39.889  19.872  12.154  1.00  0.00    -0.309 OA
ATOM      2  O3  UNK     1      43.533  20.572  10.472  1.00  0.00    -0.287 OA
ATOM      3  C1  UNK     1      42.164  19.126  11.744  1.00  0.00     0.081 A 
ATOM      4  C2  UNK     1      40.896  18.949  12.292  1.00  0.00     0.095 A 
ATOM      5  C3  UNK     1      40.152  21.034  11.445  1.00  0.00     0.090 A 
ATOM      6  C5  UNK     1      42.444  20.353  10.982  1.00  0.00     0.190 A 
ATOM      7  C6  UNK     1      41.329  21.316  10.865  1.00  0.00     0.094 A 
ATOM      8  C7  UNK     1      43.150  18.152  11.915  1.00  0.00     0.085 A 
ATOM      9  C8  UNK     1      40.604  17.794  13.017  1.00  0.00     0.075 A 
ATOM     10  C9  UNK     1      41.586  16.818  13.191  1.00  0.00     0.071 A 
ATOM     11  C10 UNK     1      42.857  16.997  12.641  1.00  0.00     0.074 A 
ENDROOT
BRANCH   5  12
ATOM     12  C4  UNK     1      39.001  21.954  11.354  1.00  0.00    -0.002 A 
ATOM     13  C12 UNK     1      38.005  21.740  10.398  1.00  0.00     0.017 A 
ATOM     14  C14 UNK     1      36.918  22.609  10.311  1.00  0.00     0.037 A 
ATOM     15  C15 UNK     1      36.823  23.696  11.181  1.00  0.00     0.065 A 
ATOM     16  C13 UNK     1      37.815  23.913  12.136  1.00  0.00     0.037 A 
ATOM     17  C11 UNK     1      38.903  23.044  12.223  1.00  0.00     0.017 A 
BRANCH  15  18
ATOM     18  O5  UNK     1      35.763  24.544  11.095  1.00  0.00    -0.361 OA
ATOM     19  H10 UNK     1      35.630  24.789  10.163  1.00  0.00     0.217 HD
ENDBRANCH  15  18
ENDBRANCH   5  12
BRANCH   8  20
ATOM     20  O2  UNK     1      44.404  18.277  11.399  1.00  0.00    -0.360 OA
ATOM     21  H8  UNK     1      44.404  18.897  10.652  1.00  0.00     0.217 HD
ENDBRANCH   8  20
BRANCH  10  22
ATOM     22  O4  UNK     1      41.304  15.689  13.898  1.00  0.00    -0.361 OA
ATOM     23  H9  UNK     1      40.347  15.654  14.070  1.00  0.00     0.217 HD
ENDBRANCH  10  22
TORSDOF 4
ENDMDL
MODEL 10
REMARK VINA RESULT:      -5.5      2.713      4.135
REMARK  4 active torsions:
REMARK  status: ('A' for Active; 'I' for Inactive)
REMARK    1  A    between atoms: O2_2  and  C7_12 
REMARK    2  A    between atoms: O4_4  and  C9_14 
REMARK    3  A    between atoms: O5_5  and  C15_20 
REMARK    4  A    between atoms: C3_8  and  C4_9 
ROOT
ATOM      1  O1  UNK     1      41.942  22.147  10.950  1.00  0.00    -0.309 OA
ATOM      2  O3  UNK     1      42.612  18.145  11.319  1.00  0.00    -0.287 OA
ATOM      3  C1  UNK     1      43.526  20.311  11.078  1.00  0.00     0.081 A 
ATOM      4  C2  UNK     1      43.227  21.666  10.957  1.00  0.00     0.095 A 
ATOM      5  C3  UNK     1      40.897  21.242  11.061  1.00  0.00     0.090 A 
ATOM      6  C5  UNK     1      42.421  19.348  11.206  1.00  0.00     0.190 A 
ATOM      7  C6  UNK     1      41.057  19.915  11.191  1.00  0.00     0.094 A 
ATOM      8  C7  UNK     1      44.854  19.877  11.080  1.00  0.00     0.085 A 
ATOM      9  C8  UNK     1      44.256  22.599  10.836  1.00  0.00     0.075 A 
ATOM     10  C9  UNK     1      45.584  22.172  10.837  1.00  0.00     0.071 A 
ATOM     11  C10 UNK     1      45.883  20.813  10.958  1.00  0.00     0.074 A 
ENDROOT
BRANCH   5  12
ATOM     12  C4  UNK     1      39.560  21.866  11.048  1.00  0.00    -0.002 A 
ATOM     13  C12 UNK     1      38.633  21.520  10.062  1.00  0.00     0.017 A 
ATOM     14  C14 UNK     1      37.369  22.111  10.050  1.00  0.00     0.037 A 
ATOM     15  C15 UNK     1      37.028  23.049  11.025  1.00  0.00     0.065 A 
ATOM     16  C13 UNK     1      37.951  23.397  12.010  1.00  0.00     0.037 A 
ATOM     17  C11 UNK     1      39.215  22.806  12.023  1.00  0.00     0.017 A 
BRANCH  15  18
ATOM     18  O5  UNK     1      35.796  23.625  11.012  1.00  0.00    -0.361 OA
ATOM     19  H10 UNK     1      35.130  22.949  11.230  1.00  0.00     0.217 HD
ENDBRANCH  15  18
ENDBRANCH   5  12
BRANCH   8  20
ATOM     20  O2  UNK     1      45.199  18.565  11.197  1.00  0.00    -0.360 OA
ATOM     21  H8  UNK     1      45.765  18.296  10.457  1.00  0.00     0.217 HD
ENDBRANCH   8  20
BRANCH  10  22
ATOM     22  O4  UNK     1      46.591  23.081  10.720  1.00  0.00    -0.361 OA
ATOM     23  H9  UNK     1      46.746  23.260   9.776  1.00  0.00     0.217 HD
ENDBRANCH  10  22
TORSDOF 4
ENDMDL
MODEL 11
REMARK VINA RESULT:      -5.5      4.918      8.115
REMARK  4 active torsions:
REMARK  status: ('A' for Active; 'I' for Inactive)
REMARK    1  A    between atoms: O2_2  and  C7_12 
REMARK    2  A    between atoms: O4_4  and  C9_14 
REMARK    3  A    between atoms: O5_5  and  C15_20 
REMARK    4  A    between atoms: C3_8  and  C4_9 
ROOT
ATOM      1  O1  UNK     1      42.658  22.895  12.694  1.00  0.00    -0.309 OA
ATOM      2  O3  UNK     1      43.654  24.953   9.322  1.00  0.00    -0.287 OA
ATOM      3  C1  UNK     1      43.028  25.031  11.599  1.00  0.00     0.081 A 
ATOM      4  C2  UNK     1      42.697  24.266  12.715  1.00  0.00     0.095 A 
ATOM      5  C3  UNK     1      42.954  22.244  11.506  1.00  0.00     0.090 A 
ATOM      6  C5  UNK     1      43.353  24.345  10.339  1.00  0.00     0.190 A 
ATOM      7  C6  UNK     1      43.294  22.869  10.367  1.00  0.00     0.094 A 
ATOM      8  C7  UNK     1      43.053  26.425  11.679  1.00  0.00     0.085 A 
ATOM      9  C8  UNK     1      42.387  24.892  13.923  1.00  0.00     0.075 A 
ATOM     10  C9  UNK     1      42.410  26.285  14.008  1.00  0.00     0.071 A 
ATOM     11  C10 UNK     1      42.741  27.050  12.887  1.00  0.00     0.074 A 
ENDROOT
BRANCH   5  12
ATOM     12  C4  UNK     1      42.888  20.772  11.595  1.00  0.00    -0.002 A 
ATOM     13  C12 UNK     1      44.059  20.025  11.739  1.00  0.00     0.017 A 
ATOM     14  C14 UNK     1      43.996  18.634  11.823  1.00  0.00     0.037 A 
ATOM     15  C15 UNK     1      42.763  17.986  11.764  1.00  0.00     0.065 A 
ATOM     16  C13 UNK     1      41.591  18.729  11.619  1.00  0.00     0.037 A 
ATOM     17  C11 UNK     1      41.653  20.120  11.536  1.00  0.00     0.017 A 
BRANCH  15  18
ATOM     18  O5  UNK     1      42.702  16.629  11.845  1.00  0.00    -0.361 OA
ATOM     19  H10 UNK     1      41.938  16.380  12.394  1.00  0.00     0.217 HD
ENDBRANCH  15  18
ENDBRANCH   5  12
BRANCH   8  20
ATOM     20  O2  UNK     1      43.370  27.217  10.617  1.00  0.00    -0.360 OA
ATOM     21  H8  UNK     1      43.382  26.697   9.798  1.00  0.00     0.217 HD
ENDBRANCH   8  20
BRANCH  10  22
ATOM     22  O4  UNK     1      42.108  26.899  15.185  1.00  0.00    -0.361 OA
ATOM     23  H9  UNK     1      42.933  27.077  15.669  1.00  0.00     0.217 HD
ENDBRANCH  10  22
TORSDOF 4
ENDMDL
MODEL 12
REMARK VINA RESULT:      -5.5      3.423      4.326
REMARK  4 active torsions:
REMARK  status: ('A' for Active; 'I' for Inactive)
REMARK    1  A    between atoms: O2_2  and  C7_12 
REMARK    2  A    between atoms: O4_4  and  C9_14 
REMARK    3  A    between atoms: O5_5  and  C15_20 
REMARK    4  A    between atoms: C3_8  and  C4_9 
ROOT
ATOM      1  O1  UNK     1      42.793  23.437  11.481  1.00  0.00    -0.309 OA
ATOM      2  O3  UNK     1      40.208  20.292  11.347  1.00  0.00    -0.287 OA
ATOM      3  C1  UNK     1      42.410  21.084  11.021  1.00  0.00     0.081 A 
ATOM      4  C2  UNK     1      43.240  22.200  11.090  1.00  0.00     0.095 A 
ATOM      5  C3  UNK     1      41.455  23.581  11.813  1.00  0.00     0.090 A 
ATOM      6  C5  UNK     1      40.991  21.230  11.382  1.00  0.00     0.190 A 
ATOM      7  C6  UNK     1      40.559  22.581  11.793  1.00  0.00     0.094 A 
ATOM      8  C7  UNK     1      42.920  19.848  10.617  1.00  0.00     0.085 A 
ATOM      9  C8  UNK     1      44.590  22.088  10.755  1.00  0.00     0.075 A 
ATOM     10  C9  UNK     1      45.104  20.856  10.351  1.00  0.00     0.071 A 
ATOM     11  C10 UNK     1      44.270  19.738  10.281  1.00  0.00     0.074 A 
ENDROOT
BRANCH   5  12
ATOM     12  C4  UNK     1      41.083  24.949  12.224  1.00  0.00    -0.002 A 
ATOM     13  C12 UNK     1      39.776  25.230  12.630  1.00  0.00     0.017 A 
ATOM     14  C14 UNK     1      39.425  26.523  13.017  1.00  0.00     0.037 A 
ATOM     15  C15 UNK     1      40.379  27.540  13.000  1.00  0.00     0.065 A 
ATOM     16  C13 UNK     1      41.685  27.264  12.594  1.00  0.00     0.037 A 
ATOM     17  C11 UNK     1      42.037  25.971  12.207  1.00  0.00     0.017 A 
BRANCH  15  18
ATOM     18  O5  UNK     1      40.036  28.802  13.377  1.00  0.00    -0.361 OA
ATOM     19  H10 UNK     1      39.295  28.752  14.005  1.00  0.00     0.217 HD
ENDBRANCH  15  18
ENDBRANCH   5  12
BRANCH   8  20
ATOM     20  O2  UNK     1      42.151  18.727  10.534  1.00  0.00    -0.360 OA
ATOM     21  H8  UNK     1      41.285  18.937  10.150  1.00  0.00     0.217 HD
ENDBRANCH   8  20
BRANCH  10  22
ATOM     22  O4  UNK     1      46.421  20.743  10.023  1.00  0.00    -0.361 OA
ATOM     23  H9  UNK     1      46.664  21.480   9.436  1.00  0.00     0.217 HD
ENDBRANCH  10  22
TORSDOF 4
ENDMDL
MODEL 13
REMARK VINA RESULT:      -5.5      4.966      8.302
REMARK  4 active torsions:
REMARK  status: ('A' for Active; 'I' for Inactive)
REMARK    1  A    between atoms: O2_2  and  C7_12 
REMARK    2  A    between atoms: O4_4  and  C9_14 
REMARK    3  A    between atoms: O5_5  and  C15_20 
REMARK    4  A    between atoms: C3_8  and  C4_9 
ROOT
ATOM      1  O1  UNK     1      44.330  18.505  11.657  1.00  0.00    -0.309 OA
ATOM      2  O3  UNK     1      41.001  20.688  10.789  1.00  0.00    -0.287 OA
ATOM      3  C1  UNK     1      41.953  18.884  11.982  1.00  0.00     0.081 A 
ATOM      4  C2  UNK     1      43.128  18.181  12.236  1.00  0.00     0.095 A 
ATOM      5  C3  UNK     1      44.371  19.574  10.776  1.00  0.00     0.090 A 
ATOM      6  C5  UNK     1      41.994  20.025  11.055  1.00  0.00     0.190 A 
ATOM      7  C6  UNK     1      43.310  20.332  10.457  1.00  0.00     0.094 A 
ATOM      8  C7  UNK     1      40.758  18.510  12.600  1.00  0.00     0.085 A 
ATOM      9  C8  UNK     1      43.117  17.096  13.112  1.00  0.00     0.075 A 
ATOM     10  C9  UNK     1      41.926  16.717  13.732  1.00  0.00     0.071 A 
ATOM     11  C10 UNK     1      40.748  17.423  13.476  1.00  0.00     0.074 A 
ENDROOT
BRANCH   5  12
ATOM     12  C4  UNK     1      45.711  19.839  10.217  1.00  0.00    -0.002 A 
ATOM     13  C12 UNK     1      46.811  19.092  10.646  1.00  0.00     0.017 A 
ATOM     14  C14 UNK     1      48.077  19.344  10.117  1.00  0.00     0.037 A 
ATOM     15  C15 UNK     1      48.248  20.342   9.158  1.00  0.00     0.065 A 
ATOM     16  C13 UNK     1      47.152  21.090   8.729  1.00  0.00     0.037 A 
ATOM     17  C11 UNK     1      45.886  20.839   9.256  1.00  0.00     0.017 A 
BRANCH  15  18
ATOM     18  O5  UNK     1      49.484  20.587   8.644  1.00  0.00    -0.361 OA
ATOM     19  H10 UNK     1      49.721  19.865   8.036  1.00  0.00     0.217 HD
ENDBRANCH  15  18
ENDBRANCH   5  12
BRANCH   8  20
ATOM     20  O2  UNK     1      39.583  19.164  12.386  1.00  0.00    -0.360 OA
ATOM     21  H8  UNK     1      39.375  19.187  11.439  1.00  0.00     0.217 HD
ENDBRANCH   8  20
BRANCH  10  22
ATOM     22  O4  UNK     1      41.911  15.659  14.589  1.00  0.00    -0.361 OA
ATOM     23  H9  UNK     1      42.800  15.546  14.966  1.00  0.00     0.217 HD
ENDBRANCH  10  22
TORSDOF 4
ENDMDL
MODEL 14
REMARK VINA RESULT:      -5.4      4.027      4.851
REMARK  4 active torsions:
REMARK  status: ('A' for Active; 'I' for Inactive)
REMARK    1  A    between atoms: O2_2  and  C7_12 
REMARK    2  A    between atoms: O4_4  and  C9_14 
REMARK    3  A    between atoms: O5_5  and  C15_20 
REMARK    4  A    between atoms: C3_8  and  C4_9 
ROOT
ATOM      1  O1  UNK     1      43.313  21.205  11.796  1.00  0.00    -0.309 OA
ATOM      2  O3  UNK     1      39.613  19.668  12.534  1.00  0.00    -0.287 OA
ATOM      3  C1  UNK     1      41.920  19.262  12.226  1.00  0.00     0.081 A 
ATOM      4  C2  UNK     1      43.156  19.853  11.972  1.00  0.00     0.095 A 
ATOM      5  C3  UNK     1      42.190  22.015  11.867  1.00  0.00     0.090 A 
ATOM      6  C5  UNK     1      40.727  20.119  12.312  1.00  0.00     0.190 A 
ATOM      7  C6  UNK     1      40.948  21.566  12.113  1.00  0.00     0.094 A 
ATOM      8  C7  UNK     1      41.819  17.880  12.397  1.00  0.00     0.085 A 
ATOM      9  C8  UNK     1      44.302  19.063  11.887  1.00  0.00     0.075 A 
ATOM     10  C9  UNK     1      44.207  17.682  12.058  1.00  0.00     0.071 A 
ATOM     11  C10 UNK     1      42.967  17.091  12.311  1.00  0.00     0.074 A 
ENDROOT
BRANCH   5  12
ATOM     12  C4  UNK     1      42.473  23.450  11.669  1.00  0.00    -0.002 A 
ATOM     13  C12 UNK     1      43.368  23.860  10.679  1.00  0.00     0.017 A 
ATOM     14  C14 UNK     1      43.635  25.216  10.493  1.00  0.00     0.037 A 
ATOM     15  C15 UNK     1      43.008  26.168  11.297  1.00  0.00     0.065 A 
ATOM     16  C13 UNK     1      42.114  25.762  12.288  1.00  0.00     0.037 A 
ATOM     17  C11 UNK     1      41.846  24.406  12.474  1.00  0.00     0.017 A 
BRANCH  15  18
ATOM     18  O5  UNK     1      43.270  27.490  11.116  1.00  0.00    -0.361 OA
ATOM     19  H10 UNK     1      44.223  27.604  10.959  1.00  0.00     0.217 HD
ENDBRANCH  15  18
ENDBRANCH   5  12
BRANCH   8  20
ATOM     20  O2  UNK     1      40.635  17.255  12.648  1.00  0.00    -0.360 OA
ATOM     21  H8  UNK     1      40.008  17.414  11.925  1.00  0.00     0.217 HD
ENDBRANCH   8  20
BRANCH  10  22
ATOM     22  O4  UNK     1      45.324  16.908  11.976  1.00  0.00    -0.361 OA
ATOM     23  H9  UNK     1      45.558  16.789  11.039  1.00  0.00     0.217 HD
ENDBRANCH  10  22
TORSDOF 4
ENDMDL
MODEL 15
REMARK VINA RESULT:      -5.4      3.942      7.037
REMARK  4 active torsions:
REMARK  status: ('A' for Active; 'I' for Inactive)
REMARK    1  A    between atoms: O2_2  and  C7_12 
REMARK    2  A    between atoms: O4_4  and  C9_14 
REMARK    3  A    between atoms: O5_5  and  C15_20 
REMARK    4  A    between atoms: C3_8  and  C4_9 
ROOT
ATOM      1  O1  UNK     1      44.141  20.115  10.247  1.00  0.00    -0.309 OA
ATOM      2  O3  UNK     1      46.320  17.468  12.449  1.00  0.00    -0.287 OA
ATOM      3  C1  UNK     1      46.285  19.074  10.716  1.00  0.00     0.081 A 
ATOM      4  C2  UNK     1      45.482  19.961  10.002  1.00  0.00     0.095 A 
ATOM      5  C3  UNK     1      43.560  19.346  11.244  1.00  0.00     0.090 A 
ATOM      6  C5  UNK     1      45.674  18.264  11.782  1.00  0.00     0.190 A 
ATOM      7  C6  UNK     1      44.228  18.464  12.005  1.00  0.00     0.094 A 
ATOM      8  C7  UNK     1      47.646  18.960  10.424  1.00  0.00     0.085 A 
ATOM      9  C8  UNK     1      46.037  20.742   8.988  1.00  0.00     0.075 A 
ATOM     10  C9  UNK     1      47.396  20.632   8.692  1.00  0.00     0.071 A 
ATOM     11  C10 UNK     1      48.199  19.741   9.408  1.00  0.00     0.074 A 
ENDROOT
BRANCH   5  12
ATOM     12  C4  UNK     1      42.116  19.594  11.428  1.00  0.00    -0.002 A 
ATOM     13  C12 UNK     1      41.427  18.985  12.479  1.00  0.00     0.017 A 
ATOM     14  C14 UNK     1      40.063  19.219  12.651  1.00  0.00     0.037 A 
ATOM     15  C15 UNK     1      39.383  20.064  11.774  1.00  0.00     0.065 A 
ATOM     16  C13 UNK     1      40.068  20.674  10.723  1.00  0.00     0.037 A 
ATOM     17  C11 UNK     1      41.432  20.440  10.550  1.00  0.00     0.017 A 
BRANCH  15  18
ATOM     18  O5  UNK     1      38.053  20.292  11.943  1.00  0.00    -0.361 OA
ATOM     19  H10 UNK     1      37.841  21.182  11.611  1.00  0.00     0.217 HD
ENDBRANCH  15  18
ENDBRANCH   5  12
BRANCH   8  20
ATOM     20  O2  UNK     1      48.472  18.108  11.092  1.00  0.00    -0.360 OA
ATOM     21  H8  UNK     1      48.002  17.687  11.829  1.00  0.00     0.217 HD
ENDBRANCH   8  20
BRANCH  10  22
ATOM     22  O4  UNK     1      47.940  21.393   7.703  1.00  0.00    -0.361 OA
ATOM     23  H9  UNK     1      48.094  22.291   8.044  1.00  0.00     0.217 HD
ENDBRANCH  10  22
TORSDOF 4
ENDMDL
MODEL 16
REMARK VINA RESULT:      -5.4      4.685      8.807
REMARK  4 active torsions:
REMARK  status: ('A' for Active; 'I' for Inactive)
REMARK    1  A    between atoms: O2_2  and  C7_12 
REMARK    2  A    between atoms: O4_4  and  C9_14 
REMARK    3  A    between atoms: O5_5  and  C15_20 
REMARK    4  A    between atoms: C3_8  and  C4_9 
ROOT
ATOM      1  O1  UNK     1      44.827  22.877  10.647  1.00  0.00    -0.309 OA
ATOM      2  O3  UNK     1      41.247  21.347  11.847  1.00  0.00    -0.287 OA
ATOM      3  C1  UNK     1      42.580  23.264  11.486  1.00  0.00     0.081 A 
ATOM      4  C2  UNK     1      43.826  23.720  11.063  1.00  0.00     0.095 A 
ATOM      5  C3  UNK     1      44.587  21.512  10.659  1.00  0.00     0.090 A 
ATOM      6  C5  UNK     1      42.318  21.816  11.491  1.00  0.00     0.190 A 
ATOM      7  C6  UNK     1      43.427  20.951  11.038  1.00  0.00     0.094 A 
ATOM      8  C7  UNK     1      41.598  24.168  11.897  1.00  0.00     0.085 A 
ATOM      9  C8  UNK     1      44.100  25.088  11.047  1.00  0.00     0.075 A 
ATOM     10  C9  UNK     1      43.123  25.995  11.457  1.00  0.00     0.071 A 
ATOM     11  C10 UNK     1      41.874  25.536  11.882  1.00  0.00     0.074 A 
ENDROOT
BRANCH   5  12
ATOM     12  C4  UNK     1      45.726  20.699  10.189  1.00  0.00    -0.002 A 
ATOM     13  C12 UNK     1      46.378  21.027   8.998  1.00  0.00     0.017 A 
ATOM     14  C14 UNK     1      47.454  20.258   8.554  1.00  0.00     0.037 A 
ATOM     15  C15 UNK     1      47.881  19.159   9.299  1.00  0.00     0.065 A 
ATOM     16  C13 UNK     1      47.231  18.828  10.488  1.00  0.00     0.037 A 
ATOM     17  C11 UNK     1      46.156  19.596  10.933  1.00  0.00     0.017 A 
BRANCH  15  18
ATOM     18  O5  UNK     1      48.930  18.409   8.865  1.00  0.00    -0.361 OA
ATOM     19  H10 UNK     1      48.892  17.536   9.295  1.00  0.00     0.217 HD
ENDBRANCH  15  18
ENDBRANCH   5  12
BRANCH   8  20
ATOM     20  O2  UNK     1      40.366  23.772  12.319  1.00  0.00    -0.360 OA
ATOM     21  H8  UNK     1      40.123  24.233  13.138  1.00  0.00     0.217 HD
ENDBRANCH   8  20
BRANCH  10  22
ATOM     22  O4  UNK     1      43.386  27.331  11.443  1.00  0.00    -0.361 OA
ATOM     23  H9  UNK     1      42.726  27.789  11.992  1.00  0.00     0.217 HD
ENDBRANCH  10  22
TORSDOF 4
ENDMDL
MODEL 17
REMARK VINA RESULT:      -5.4      3.085      7.684
REMARK  4 active torsions:
REMARK  status: ('A' for Active; 'I' for Inactive)
REMARK    1  A    between atoms: O2_2  and  C7_12 
REMARK    2  A    between atoms: O4_4  and  C9_14 
REMARK    3  A    between atoms: O5_5  and  C15_20 
REMARK    4  A    between atoms: C3_8  and  C4_9 
ROOT
ATOM      1  O1  UNK     1      42.564  20.299  10.485  1.00  0.00    -0.309 OA
ATOM      2  O3  UNK     1      41.401  18.459  13.929  1.00  0.00    -0.287 OA
ATOM      3  C1  UNK     1      40.786  19.744  12.044  1.00  0.00     0.081 A 
ATOM      4  C2  UNK     1      41.251  20.350  10.879  1.00  0.00     0.095 A 
ATOM      5  C3  UNK     1      43.468  19.621  11.289  1.00  0.00     0.090 A 
ATOM      6  C5  UNK     1      41.740  19.016  12.895  1.00  0.00     0.190 A 
ATOM      7  C6  UNK     1      43.142  18.992  12.430  1.00  0.00     0.094 A 
ATOM      8  C7  UNK     1      39.437  19.828  12.395  1.00  0.00     0.085 A 
ATOM      9  C8  UNK     1      40.366  21.045  10.053  1.00  0.00     0.075 A 
ATOM     10  C9  UNK     1      39.018  21.131  10.399  1.00  0.00     0.071 A 
ATOM     11  C10 UNK     1      38.554  20.525  11.568  1.00  0.00     0.074 A 
ENDROOT
BRANCH   5  12
ATOM     12  C4  UNK     1      44.850  19.623  10.771  1.00  0.00    -0.002 A 
ATOM     13  C12 UNK     1      45.218  20.508   9.755  1.00  0.00     0.017 A 
ATOM     14  C14 UNK     1      46.524  20.509   9.265  1.00  0.00     0.037 A 
ATOM     15  C15 UNK     1      47.467  19.625   9.789  1.00  0.00     0.065 A 
ATOM     16  C13 UNK     1      47.103  18.740  10.803  1.00  0.00     0.037 A 
ATOM     17  C11 UNK     1      45.798  18.738  11.294  1.00  0.00     0.017 A 
BRANCH  15  18
ATOM     18  O5  UNK     1      48.740  19.626   9.310  1.00  0.00    -0.361 OA
ATOM     19  H10 UNK     1      48.869  20.419   8.760  1.00  0.00     0.217 HD
ENDBRANCH  15  18
ENDBRANCH   5  12
BRANCH   8  20
ATOM     20  O2  UNK     1      38.934  19.254  13.522  1.00  0.00    -0.360 OA
ATOM     21  H8  UNK     1      39.647  18.865  14.053  1.00  0.00     0.217 HD
ENDBRANCH   8  20
BRANCH  10  22
ATOM     22  O4  UNK     1      38.152  21.809   9.596  1.00  0.00    -0.361 OA
ATOM     23  H9  UNK     1      37.311  21.320   9.555  1.00  0.00     0.217 HD
ENDBRANCH  10  22
TORSDOF 4
ENDMDL
MODEL 18
REMARK VINA RESULT:      -5.4      3.625      5.085
REMARK  4 active torsions:
REMARK  status: ('A' for Active; 'I' for Inactive)
REMARK    1  A    between atoms: O2_2  and  C7_12 
REMARK    2  A    between atoms: O4_4  and  C9_14 
REMARK    3  A    between atoms: O5_5  and  C15_20 
REMARK    4  A    between atoms: C3_8  and  C4_9 
ROOT
ATOM      1  O1  UNK     1      41.595  23.306  11.662  1.00  0.00    -0.309 OA
ATOM      2  O3  UNK     1      45.611  23.961  11.470  1.00  0.00    -0.287 OA
ATOM      3  C1  UNK     1      43.821  22.440  11.219  1.00  0.00     0.081 A 
ATOM      4  C2  UNK     1      42.439  22.285  11.303  1.00  0.00     0.095 A 
ATOM      5  C3  UNK     1      42.145  24.543  11.961  1.00  0.00     0.090 A 
ATOM      6  C5  UNK     1      44.408  23.754  11.526  1.00  0.00     0.190 A 
ATOM      7  C6  UNK     1      43.458  24.818  11.910  1.00  0.00     0.094 A 
ATOM      8  C7  UNK     1      44.632  21.366  10.847  1.00  0.00     0.085 A 
ATOM      9  C8  UNK     1      41.857  21.050  11.015  1.00  0.00     0.075 A 
ATOM     10  C9  UNK     1      42.662  19.973  10.643  1.00  0.00     0.071 A 
ATOM     11  C10 UNK     1      44.048  20.131  10.560  1.00  0.00     0.074 A 
ENDROOT
BRANCH   5  12
ATOM     12  C4  UNK     1      41.149  25.568  12.329  1.00  0.00    -0.002 A 
ATOM     13  C12 UNK     1      39.835  25.198  12.624  1.00  0.00     0.017 A 
ATOM     14  C14 UNK     1      38.895  26.168  12.970  1.00  0.00     0.037 A 
ATOM     15  C15 UNK     1      39.265  27.512  13.023  1.00  0.00     0.065 A 
ATOM     16  C13 UNK     1      40.575  27.885  12.728  1.00  0.00     0.037 A 
ATOM     17  C11 UNK     1      41.517  26.916  12.382  1.00  0.00     0.017 A 
BRANCH  15  18
ATOM     18  O5  UNK     1      38.346  28.457  13.360  1.00  0.00    -0.361 OA
ATOM     19  H10 UNK     1      38.778  29.329  13.359  1.00  0.00     0.217 HD
ENDBRANCH  15  18
ENDBRANCH   5  12
BRANCH   8  20
ATOM     20  O2  UNK     1      45.986  21.466  10.750  1.00  0.00    -0.360 OA
ATOM     21  H8  UNK     1      46.249  21.632   9.832  1.00  0.00     0.217 HD
ENDBRANCH   8  20
BRANCH  10  22
ATOM     22  O4  UNK     1      42.098  18.767  10.361  1.00  0.00    -0.361 OA
ATOM     23  H9  UNK     1      42.746  18.065  10.544  1.00  0.00     0.217 HD
ENDBRANCH  10  22
TORSDOF 4
ENDMDL
MODEL 19
REMARK VINA RESULT:      -5.3      3.258      4.664
REMARK  4 active torsions:
REMARK  status: ('A' for Active; 'I' for Inactive)
REMARK    1  A    between atoms: O2_2  and  C7_12 
REMARK    2  A    between atoms: O4_4  and  C9_14 
REMARK    3  A    between atoms: O5_5  and  C15_20 
REMARK    4  A    between atoms: C3_8  and  C4_9 
ROOT
ATOM      1  O1  UNK     1      40.734  22.187  12.831  1.00  0.00    -0.309 OA
ATOM      2  O3  UNK     1      43.421  20.357  10.374  1.00  0.00    -0.287 OA
ATOM      3  C1  UNK     1      41.680  20.128  11.956  1.00  0.00     0.081 A 
ATOM      4  C2  UNK     1      40.786  20.816  12.773  1.00  0.00     0.095 A 
ATOM      5  C3  UNK     1      41.616  22.915  12.047  1.00  0.00     0.090 A 
ATOM      6  C5  UNK     1      42.612  20.896  11.116  1.00  0.00     0.190 A 
ATOM      7  C6  UNK     1      42.518  22.367  11.216  1.00  0.00     0.094 A 
ATOM      8  C7  UNK     1      41.689  18.731  11.937  1.00  0.00     0.085 A 
ATOM      9  C8  UNK     1      39.891  20.111  13.578  1.00  0.00     0.075 A 
ATOM     10  C9  UNK     1      39.895  18.716  13.563  1.00  0.00     0.071 A 
ATOM     11  C10 UNK     1      40.793  18.027  12.744  1.00  0.00     0.074 A 
ENDROOT
BRANCH   5  12
ATOM     12  C4  UNK     1      41.471  24.377  12.182  1.00  0.00    -0.002 A 
ATOM     13  C12 UNK     1      42.537  25.221  11.864  1.00  0.00     0.017 A 
ATOM     14  C14 UNK     1      42.399  26.603  11.992  1.00  0.00     0.037 A 
ATOM     15  C15 UNK     1      41.194  27.146  12.438  1.00  0.00     0.065 A 
ATOM     16  C13 UNK     1      40.128  26.306  12.757  1.00  0.00     0.037 A 
ATOM     17  C11 UNK     1      40.265  24.924  12.629  1.00  0.00     0.017 A 
BRANCH  15  18
ATOM     18  O5  UNK     1      41.061  28.494  12.563  1.00  0.00    -0.361 OA
ATOM     19  H10 UNK     1      41.390  28.763  13.439  1.00  0.00     0.217 HD
ENDBRANCH  15  18
ENDBRANCH   5  12
BRANCH   8  20
ATOM     20  O2  UNK     1      42.542  18.012  11.157  1.00  0.00    -0.360 OA
ATOM     21  H8  UNK     1      42.260  18.041  10.229  1.00  0.00     0.217 HD
ENDBRANCH   8  20
BRANCH  10  22
ATOM     22  O4  UNK     1      39.023  18.025  14.347  1.00  0.00    -0.361 OA
ATOM     23  H9  UNK     1      39.254  18.171  15.280  1.00  0.00     0.217 HD
ENDBRANCH  10  22
TORSDOF 4
ENDMDL
