MODEL 1
REMARK VINA RESULT:      -6.1      0.000      0.000
REMARK  4 active torsions:
REMARK  status: ('A' for Active; 'I' for Inactive)
REMARK    1  A    between atoms: O2_2  and  C7_12 
REMARK    2  A    between atoms: O4_4  and  C9_14 
REMARK    3  A    between atoms: O5_5  and  C15_20 
REMARK    4  A    between atoms: C3_8  and  C4_9 
ROOT
ATOM      1  O1  UNK     1      38.956  22.056  11.027  1.00  0.00    -0.309 OA
ATOM      2  O3  UNK     1      37.785  19.605  14.063  1.00  0.00    -0.287 OA
ATOM      3  C1  UNK     1      39.372  20.082  12.380  1.00  0.00     0.081 A 
ATOM      4  C2  UNK     1      39.715  20.961  11.355  1.00  0.00     0.095 A 
ATOM      5  C3  UNK     1      37.792  22.290  11.743  1.00  0.00     0.090 A 
ATOM      6  C5  UNK     1      38.144  20.333  13.149  1.00  0.00     0.190 A 
ATOM      7  C6  UNK     1      37.360  21.522  12.756  1.00  0.00     0.094 A 
ATOM      8  C7  UNK     1      40.185  18.984  12.671  1.00  0.00     0.085 A 
ATOM      9  C8  UNK     1      40.876  20.747  10.611  1.00  0.00     0.075 A 
ATOM     10  C9  UNK     1      41.691  19.651  10.898  1.00  0.00     0.071 A 
ATOM     11  C10 UNK     1      41.345  18.771  11.925  1.00  0.00     0.074 A 
ENDROOT
BRANCH   5  12
ATOM     12  C4  UNK     1      37.055  23.495  11.313  1.00  0.00    -0.002 A 
ATOM     13  C12 UNK     1      37.379  24.744  11.846  1.00  0.00     0.017 A 
ATOM     14  C14 UNK     1      36.682  25.882  11.439  1.00  0.00     0.037 A 
ATOM     15  C15 UNK     1      35.659  25.774  10.497  1.00  0.00     0.065 A 
ATOM     16  C13 UNK     1      35.332  24.528   9.963  1.00  0.00     0.037 A 
ATOM     17  C11 UNK     1      36.029  23.390  10.369  1.00  0.00     0.017 A 
BRANCH  15  18
ATOM     18  O5  UNK     1      34.979  26.884  10.102  1.00  0.00    -0.361 OA
ATOM     19  H10 UNK     1      34.785  27.430  10.884  1.00  0.00     0.217 HD
ENDBRANCH  15  18
ENDBRANCH   5  12
BRANCH   8  20
ATOM     20  O2  UNK     1      39.894  18.097  13.662  1.00  0.00    -0.360 OA
ATOM     21  H8  UNK     1      40.557  18.147  14.368  1.00  0.00     0.217 HD
ENDBRANCH   8  20
BRANCH  10  22
ATOM     22  O4  UNK     1      42.825  19.439  10.174  1.00  0.00    -0.361 OA
ATOM     23  H9  UNK     1      43.573  19.866  10.627  1.00  0.00     0.217 HD
ENDBRANCH  10  22
TORSDOF 4
ENDMDL
MODEL 2
REMARK VINA RESULT:      -6.0      2.117      6.906
REMARK  4 active torsions:
REMARK  status: ('A' for Active; 'I' for Inactive)
REMARK    1  A    between atoms: O2_2  and  C7_12 
REMARK    2  A    between atoms: O4_4  and  C9_14 
REMARK    3  A    between atoms: O5_5  and  C15_20 
REMARK    4  A    between atoms: C3_8  and  C4_9 
ROOT
ATOM      1  O1  UNK     1      36.682  23.261  10.674  1.00  0.00    -0.309 OA
ATOM      2  O3  UNK     1      34.440  22.773  14.041  1.00  0.00    -0.287 OA
ATOM      3  C1  UNK     1      34.774  23.941  12.015  1.00  0.00     0.081 A 
ATOM      4  C2  UNK     1      35.583  24.054  10.886  1.00  0.00     0.095 A 
ATOM      5  C3  UNK     1      37.005  22.311  11.632  1.00  0.00     0.090 A 
ATOM      6  C5  UNK     1      35.108  22.928  13.028  1.00  0.00     0.190 A 
ATOM      7  C6  UNK     1      36.301  22.102  12.756  1.00  0.00     0.094 A 
ATOM      8  C7  UNK     1      33.666  24.775  12.177  1.00  0.00     0.085 A 
ATOM      9  C8  UNK     1      35.288  25.005   9.909  1.00  0.00     0.075 A 
ATOM     10  C9  UNK     1      34.182  25.841  10.066  1.00  0.00     0.071 A 
ATOM     11  C10 UNK     1      33.373  25.727  11.199  1.00  0.00     0.074 A 
ENDROOT
BRANCH   5  12
ATOM     12  C4  UNK     1      38.201  21.510  11.303  1.00  0.00    -0.002 A 
ATOM     13  C12 UNK     1      38.740  21.550  10.015  1.00  0.00     0.017 A 
ATOM     14  C14 UNK     1      39.869  20.792   9.704  1.00  0.00     0.037 A 
ATOM     15  C15 UNK     1      40.463  19.992  10.680  1.00  0.00     0.065 A 
ATOM     16  C13 UNK     1      39.927  19.950  11.967  1.00  0.00     0.037 A 
ATOM     17  C11 UNK     1      38.798  20.707  12.279  1.00  0.00     0.017 A 
BRANCH  15  18
ATOM     18  O5  UNK     1      41.564  19.253  10.377  1.00  0.00    -0.361 OA
ATOM     19  H10 UNK     1      41.596  18.479  10.966  1.00  0.00     0.217 HD
ENDBRANCH  15  18
ENDBRANCH   5  12
BRANCH   8  20
ATOM     20  O2  UNK     1      32.845  24.704  13.261  1.00  0.00    -0.360 OA
ATOM     21  H8  UNK     1      32.070  25.273  13.138  1.00  0.00     0.217 HD
ENDBRANCH   8  20
BRANCH  10  22
ATOM     22  O4  UNK     1      33.891  26.771   9.115  1.00  0.00    -0.361 OA
ATOM     23  H9  UNK     1      33.266  27.418   9.486  1.00  0.00     0.217 HD
ENDBRANCH  10  22
TORSDOF 4
ENDMDL
MODEL 3
REMARK VINA RESULT:      -5.7      4.301      5.510
REMARK  4 active torsions:
REMARK  status: ('A' for Active; 'I' for Inactive)
REMARK    1  A    between atoms: O2_2  and  C7_12 
REMARK    2  A    between atoms: O4_4  and  C9_14 
REMARK    3  A    between atoms: O5_5  and  C15_20 
REMARK    4  A    between atoms: C3_8  and  C4_9 
ROOT
ATOM      1  O1  UNK     1      41.647  21.462  12.370  1.00  0.00    -0.309 OA
ATOM      2  O3  UNK     1      44.261  18.756  10.807  1.00  0.00    -0.287 OA
ATOM      3  C1  UNK     1      42.290  19.142  12.053  1.00  0.00     0.081 A 
ATOM      4  C2  UNK     1      41.436  20.119  12.559  1.00  0.00     0.095 A 
ATOM      5  C3  UNK     1      42.764  21.861  11.652  1.00  0.00     0.090 A 
ATOM      6  C5  UNK     1      43.472  19.560  11.282  1.00  0.00     0.190 A 
ATOM      7  C6  UNK     1      43.655  21.016  11.110  1.00  0.00     0.094 A 
ATOM      8  C7  UNK     1      42.026  17.789  12.274  1.00  0.00     0.085 A 
ATOM      9  C8  UNK     1      40.308  19.749  13.291  1.00  0.00     0.075 A 
ATOM     10  C9  UNK     1      40.040  18.399  13.516  1.00  0.00     0.071 A 
ATOM     11  C10 UNK     1      40.897  17.420  13.009  1.00  0.00     0.074 A 
ENDROOT
BRANCH   5  12
ATOM     12  C4  UNK     1      42.891  23.324  11.505  1.00  0.00    -0.002 A 
ATOM     13  C12 UNK     1      43.534  23.865  10.389  1.00  0.00     0.017 A 
ATOM     14  C14 UNK     1      43.655  25.247  10.251  1.00  0.00     0.037 A 
ATOM     15  C15 UNK     1      43.133  26.095  11.229  1.00  0.00     0.065 A 
ATOM     16  C13 UNK     1      42.491  25.558  12.345  1.00  0.00     0.037 A 
ATOM     17  C11 UNK     1      42.370  24.176  12.484  1.00  0.00     0.017 A 
BRANCH  15  18
ATOM     18  O5  UNK     1      43.251  27.443  11.094  1.00  0.00    -0.361 OA
ATOM     19  H10 UNK     1      44.196  27.679  11.104  1.00  0.00     0.217 HD
ENDBRANCH  15  18
ENDBRANCH   5  12
BRANCH   8  20
ATOM     20  O2  UNK     1      42.829  16.796  11.802  1.00  0.00    -0.360 OA
ATOM     21  H8  UNK     1      43.511  16.572  12.453  1.00  0.00     0.217 HD
ENDBRANCH   8  20
BRANCH  10  22
ATOM     22  O4  UNK     1      38.940  18.034  14.230  1.00  0.00    -0.361 OA
ATOM     23  H9  UNK     1      39.217  17.461  14.966  1.00  0.00     0.217 HD
ENDBRANCH  10  22
TORSDOF 4
ENDMDL
MODEL 4
REMARK VINA RESULT:      -5.6      2.910      4.827
REMARK  4 active torsions:
REMARK  status: ('A' for Active; 'I' for Inactive)
REMARK    1  A    between atoms: O2_2  and  C7_12 
REMARK    2  A    between atoms: O4_4  and  C9_14 
REMARK    3  A    between atoms: O5_5  and  C15_20 
REMARK    4  A    between atoms: C3_8  and  C4_9 
ROOT
ATOM      1  O1  UNK     1      42.723  21.403  10.664  1.00  0.00    -0.309 OA
ATOM      2  O3  UNK     1      43.360  17.543  11.801  1.00  0.00    -0.287 OA
ATOM      3  C1  UNK     1      44.288  19.593  11.080  1.00  0.00     0.081 A 
ATOM      4  C2  UNK     1      44.000  20.903  10.702  1.00  0.00     0.095 A 
ATOM      5  C3  UNK     1      41.674  20.564  11.010  1.00  0.00     0.090 A 
ATOM      6  C5  UNK     1      43.180  18.702  11.457  1.00  0.00     0.190 A 
ATOM      7  C6  UNK     1      41.824  19.287  11.397  1.00  0.00     0.094 A 
ATOM      8  C7  UNK     1      45.608  19.137  11.101  1.00  0.00     0.085 A 
ATOM      9  C8  UNK     1      45.033  21.768  10.342  1.00  0.00     0.075 A 
ATOM     10  C9  UNK     1      46.353  21.318  10.361  1.00  0.00     0.071 A 
ATOM     11  C10 UNK     1      46.641  20.005  10.739  1.00  0.00     0.074 A 
ENDROOT
BRANCH   5  12
ATOM     12  C4  UNK     1      40.346  21.204  10.940  1.00  0.00    -0.002 A 
ATOM     13  C12 UNK     1      39.937  22.084  11.945  1.00  0.00     0.017 A 
ATOM     14  C14 UNK     1      38.682  22.688  11.879  1.00  0.00     0.037 A 
ATOM     15  C15 UNK     1      37.831  22.415  10.808  1.00  0.00     0.065 A 
ATOM     16  C13 UNK     1      38.236  21.536   9.803  1.00  0.00     0.037 A 
ATOM     17  C11 UNK     1      39.491  20.932   9.868  1.00  0.00     0.017 A 
BRANCH  15  18
ATOM     18  O5  UNK     1      36.606  23.003  10.745  1.00  0.00    -0.361 OA
ATOM     19  H10 UNK     1      36.278  22.949   9.830  1.00  0.00     0.217 HD
ENDBRANCH  15  18
ENDBRANCH   5  12
BRANCH   8  20
ATOM     20  O2  UNK     1      45.942  17.868  11.463  1.00  0.00    -0.360 OA
ATOM     21  H8  UNK     1      46.226  17.843  12.390  1.00  0.00     0.217 HD
ENDBRANCH   8  20
BRANCH  10  22
ATOM     22  O4  UNK     1      47.364  22.160  10.010  1.00  0.00    -0.361 OA
ATOM     23  H9  UNK     1      47.190  23.038  10.391  1.00  0.00     0.217 HD
ENDBRANCH  10  22
TORSDOF 4
ENDMDL
MODEL 5
REMARK VINA RESULT:      -5.6      2.910      4.937
REMARK  4 active torsions:
REMARK  status: ('A' for Active; 'I' for Inactive)
REMARK    1  A    between atoms: O2_2  and  C7_12 
REMARK    2  A    between atoms: O4_4  and  C9_14 
REMARK    3  A    between atoms: O5_5  and  C15_20 
REMARK    4  A    between atoms: C3_8  and  C4_9 
ROOT
ATOM      1  O1  UNK     1      42.724  21.400  10.665  1.00  0.00    -0.309 OA
ATOM      2  O3  UNK     1      43.364  17.540  11.803  1.00  0.00    -0.287 OA
ATOM      3  C1  UNK     1      44.290  19.590  11.080  1.00  0.00     0.081 A 
ATOM      4  C2  UNK     1      44.001  20.900  10.702  1.00  0.00     0.095 A 
ATOM      5  C3  UNK     1      41.676  20.560  11.012  1.00  0.00     0.090 A 
ATOM      6  C5  UNK     1      43.182  18.699  11.459  1.00  0.00     0.190 A 
ATOM      7  C6  UNK     1      41.827  19.284  11.400  1.00  0.00     0.094 A 
ATOM      8  C7  UNK     1      45.610  19.135  11.100  1.00  0.00     0.085 A 
ATOM      9  C8  UNK     1      45.034  21.765  10.341  1.00  0.00     0.075 A 
ATOM     10  C9  UNK     1      46.354  21.316  10.359  1.00  0.00     0.071 A 
ATOM     11  C10 UNK     1      46.642  20.003  10.737  1.00  0.00     0.074 A 
ENDROOT
BRANCH   5  12
ATOM     12  C4  UNK     1      40.348  21.200  10.944  1.00  0.00    -0.002 A 
ATOM     13  C12 UNK     1      39.490  20.925   9.876  1.00  0.00     0.017 A 
ATOM     14  C14 UNK     1      38.235  21.530   9.812  1.00  0.00     0.037 A 
ATOM     15  C15 UNK     1      37.834  22.413  10.814  1.00  0.00     0.065 A 
ATOM     16  C13 UNK     1      38.688  22.691  11.881  1.00  0.00     0.037 A 
ATOM     17  C11 UNK     1      39.943  22.086  11.947  1.00  0.00     0.017 A 
BRANCH  15  18
ATOM     18  O5  UNK     1      36.610  23.004  10.750  1.00  0.00    -0.361 OA
ATOM     19  H10 UNK     1      36.461  23.509  11.569  1.00  0.00     0.217 HD
ENDBRANCH  15  18
ENDBRANCH   5  12
BRANCH   8  20
ATOM     20  O2  UNK     1      45.945  17.866  11.462  1.00  0.00    -0.360 OA
ATOM     21  H8  UNK     1      45.492  17.221  10.897  1.00  0.00     0.217 HD
ENDBRANCH   8  20
BRANCH  10  22
ATOM     22  O4  UNK     1      47.365  22.158  10.007  1.00  0.00    -0.361 OA
ATOM     23  H9  UNK     1      48.005  22.206  10.738  1.00  0.00     0.217 HD
ENDBRANCH  10  22
TORSDOF 4
ENDMDL
MODEL 6
REMARK VINA RESULT:      -5.6      3.824      4.511
REMARK  4 active torsions:
REMARK  status: ('A' for Active; 'I' for Inactive)
REMARK    1  A    between atoms: O2_2  and  C7_12 
REMARK    2  A    between atoms: O4_4  and  C9_14 
REMARK    3  A    between atoms: O5_5  and  C15_20 
REMARK    4  A    between atoms: C3_8  and  C4_9 
ROOT
ATOM      1  O1  UNK     1      42.159  21.106  11.911  1.00  0.00    -0.309 OA
ATOM      2  O3  UNK     1      38.803  20.770  14.196  1.00  0.00    -0.287 OA
ATOM      3  C1  UNK     1      40.582  19.681  13.085  1.00  0.00     0.081 A 
ATOM      4  C2  UNK     1      41.721  19.867  12.305  1.00  0.00     0.095 A 
ATOM      5  C3  UNK     1      41.430  22.219  12.300  1.00  0.00     0.090 A 
ATOM      6  C5  UNK     1      39.811  20.860  13.509  1.00  0.00     0.190 A 
ATOM      7  C6  UNK     1      40.322  22.170  13.057  1.00  0.00     0.094 A 
ATOM      8  C7  UNK     1      40.182  18.396  13.458  1.00  0.00     0.085 A 
ATOM      9  C8  UNK     1      42.470  18.766  11.892  1.00  0.00     0.075 A 
ATOM     10  C9  UNK     1      42.076  17.479  12.262  1.00  0.00     0.071 A 
ATOM     11  C10 UNK     1      40.933  17.295  13.043  1.00  0.00     0.074 A 
ENDROOT
BRANCH   5  12
ATOM     12  C4  UNK     1      41.993  23.499  11.827  1.00  0.00    -0.002 A 
ATOM     13  C12 UNK     1      42.792  23.535  10.683  1.00  0.00     0.017 A 
ATOM     14  C14 UNK     1      43.323  24.745  10.237  1.00  0.00     0.037 A 
ATOM     15  C15 UNK     1      43.058  25.924  10.934  1.00  0.00     0.065 A 
ATOM     16  C13 UNK     1      42.261  25.892  12.078  1.00  0.00     0.037 A 
ATOM     17  C11 UNK     1      41.728  24.682  12.524  1.00  0.00     0.017 A 
BRANCH  15  18
ATOM     18  O5  UNK     1      43.577  27.103  10.499  1.00  0.00    -0.361 OA
ATOM     19  H10 UNK     1      43.933  26.979   9.602  1.00  0.00     0.217 HD
ENDBRANCH  15  18
ENDBRANCH   5  12
BRANCH   8  20
ATOM     20  O2  UNK     1      39.078  18.161  14.220  1.00  0.00    -0.360 OA
ATOM     21  H8  UNK     1      38.852  18.947  14.741  1.00  0.00     0.217 HD
ENDBRANCH   8  20
BRANCH  10  22
ATOM     22  O4  UNK     1      42.805  16.402  11.860  1.00  0.00    -0.361 OA
ATOM     23  H9  UNK     1      42.796  15.733  12.566  1.00  0.00     0.217 HD
ENDBRANCH  10  22
TORSDOF 4
ENDMDL
MODEL 7
REMARK VINA RESULT:      -5.5      3.844      7.924
REMARK  4 active torsions:
REMARK  status: ('A' for Active; 'I' for Inactive)
REMARK    1  A    between atoms: O2_2  and  C7_12 
REMARK    2  A    between atoms: O4_4  and  C9_14 
REMARK    3  A    between atoms: O5_5  and  C15_20 
REMARK    4  A    between atoms: C3_8  and  C4_9 
ROOT
ATOM      1  O1  UNK     1      41.510  22.929  12.190  1.00  0.00    -0.309 OA
ATOM      2  O3  UNK     1      44.678  25.187  10.981  1.00  0.00    -0.287 OA
ATOM      3  C1  UNK     1      42.472  25.129  11.827  1.00  0.00     0.081 A 
ATOM      4  C2  UNK     1      41.428  24.298  12.227  1.00  0.00     0.095 A 
ATOM      5  C3  UNK     1      42.681  22.350  11.727  1.00  0.00     0.090 A 
ATOM      6  C5  UNK     1      43.721  24.518  11.344  1.00  0.00     0.190 A 
ATOM      7  C6  UNK     1      43.758  23.042  11.322  1.00  0.00     0.094 A 
ATOM      8  C7  UNK     1      42.334  26.517  11.887  1.00  0.00     0.085 A 
ATOM      9  C8  UNK     1      40.235  24.852  12.690  1.00  0.00     0.075 A 
ATOM     10  C9  UNK     1      40.091  26.238  12.751  1.00  0.00     0.071 A 
ATOM     11  C10 UNK     1      41.139  27.070  12.350  1.00  0.00     0.074 A 
ENDROOT
BRANCH   5  12
ATOM     12  C4  UNK     1      42.664  20.874  11.735  1.00  0.00    -0.002 A 
ATOM     13  C12 UNK     1      41.450  20.186  11.810  1.00  0.00     0.017 A 
ATOM     14  C14 UNK     1      41.435  18.791  11.819  1.00  0.00     0.037 A 
ATOM     15  C15 UNK     1      42.632  18.079  11.751  1.00  0.00     0.065 A 
ATOM     16  C13 UNK     1      43.846  18.763  11.677  1.00  0.00     0.037 A 
ATOM     17  C11 UNK     1      43.862  20.157  11.668  1.00  0.00     0.017 A 
BRANCH  15  18
ATOM     18  O5  UNK     1      42.617  16.719  11.761  1.00  0.00    -0.361 OA
ATOM     19  H10 UNK     1      41.811  16.411  11.310  1.00  0.00     0.217 HD
ENDBRANCH  15  18
ENDBRANCH   5  12
BRANCH   8  20
ATOM     20  O2  UNK     1      43.325  27.372  11.508  1.00  0.00    -0.360 OA
ATOM     21  H8  UNK     1      42.981  28.275  11.426  1.00  0.00     0.217 HD
ENDBRANCH   8  20
BRANCH  10  22
ATOM     22  O4  UNK     1      38.927  26.782  13.203  1.00  0.00    -0.361 OA
ATOM     23  H9  UNK     1      38.692  27.539  12.639  1.00  0.00     0.217 HD
ENDBRANCH  10  22
TORSDOF 4
ENDMDL
MODEL 8
REMARK VINA RESULT:      -5.5      1.821      3.793
REMARK  4 active torsions:
REMARK  status: ('A' for Active; 'I' for Inactive)
REMARK    1  A    between atoms: O2_2  and  C7_12 
REMARK    2  A    between atoms: O4_4  and  C9_14 
REMARK    3  A    between atoms: O5_5  and  C15_20 
REMARK    4  A    between atoms: C3_8  and  C4_9 
ROOT
ATOM      1  O1  UNK     1      39.900  19.834  12.147  1.00  0.00    -0.309 OA
ATOM      2  O3  UNK     1      43.549  20.539  10.476  1.00  0.00    -0.287 OA
ATOM      3  C1  UNK     1      42.177  19.091  11.743  1.00  0.00     0.081 A 
ATOM      4  C2  UNK     1      40.907  18.913  12.287  1.00  0.00     0.095 A 
ATOM      5  C3  UNK     1      40.164  20.997  11.439  1.00  0.00     0.090 A 
ATOM      6  C5  UNK     1      42.458  20.319  10.983  1.00  0.00     0.190 A 
ATOM      7  C6  UNK     1      41.343  21.281  10.863  1.00  0.00     0.094 A 
ATOM      8  C7  UNK     1      43.164  18.118  11.916  1.00  0.00     0.085 A 
ATOM      9  C8  UNK     1      40.614  17.756  13.010  1.00  0.00     0.075 A 
ATOM     10  C9  UNK     1      41.596  16.781  13.187  1.00  0.00     0.071 A 
ATOM     11  C10 UNK     1      42.869  16.962  12.641  1.00  0.00     0.074 A 
ENDROOT
BRANCH   5  12
ATOM     12  C4  UNK     1      39.012  21.916  11.345  1.00  0.00    -0.002 A 
ATOM     13  C12 UNK     1      38.027  21.708  10.377  1.00  0.00     0.017 A 
ATOM     14  C14 UNK     1      36.939  22.577  10.288  1.00  0.00     0.037 A 
ATOM     15  C15 UNK     1      36.833  23.656  11.166  1.00  0.00     0.065 A 
ATOM     16  C13 UNK     1      37.816  23.866  12.133  1.00  0.00     0.037 A 
ATOM     17  C11 UNK     1      38.903  22.998  12.223  1.00  0.00     0.017 A 
BRANCH  15  18
ATOM     18  O5  UNK     1      35.772  24.503  11.077  1.00  0.00    -0.361 OA
ATOM     19  H10 UNK     1      35.063  24.068  10.571  1.00  0.00     0.217 HD
ENDBRANCH  15  18
ENDBRANCH   5  12
BRANCH   8  20
ATOM     20  O2  UNK     1      44.419  18.245  11.405  1.00  0.00    -0.360 OA
ATOM     21  H8  UNK     1      44.431  17.996  10.467  1.00  0.00     0.217 HD
ENDBRANCH   8  20
BRANCH  10  22
ATOM     22  O4  UNK     1      41.314  15.651  13.892  1.00  0.00    -0.361 OA
ATOM     23  H9  UNK     1      41.435  14.879  13.313  1.00  0.00     0.217 HD
ENDBRANCH  10  22
TORSDOF 4
ENDMDL
MODEL 9
REMARK VINA RESULT:      -5.5      2.716      4.146
REMARK  4 active torsions:
REMARK  status: ('A' for Active; 'I' for Inactive)
REMARK    1  A    between atoms: O2_2  and  C7_12 
REMARK    2  A    between atoms: O4_4  and  C9_14 
REMARK    3  A    between atoms: O5_5  and  C15_20 
REMARK    4  A    between atoms: C3_8  and  C4_9 
ROOT
ATOM      1  O1  UNK     1      41.949  22.140  10.941  1.00  0.00    -0.309 OA
ATOM      2  O3  UNK     1      42.613  18.136  11.295  1.00  0.00    -0.287 OA
ATOM      3  C1  UNK     1      43.531  20.302  11.064  1.00  0.00     0.081 A 
ATOM      4  C2  UNK     1      43.234  21.658  10.948  1.00  0.00     0.095 A 
ATOM      5  C3  UNK     1      40.903  21.236  11.047  1.00  0.00     0.090 A 
ATOM      6  C5  UNK     1      42.425  19.340  11.187  1.00  0.00     0.190 A 
ATOM      7  C6  UNK     1      41.061  19.909  11.172  1.00  0.00     0.094 A 
ATOM      8  C7  UNK     1      44.858  19.866  11.066  1.00  0.00     0.085 A 
ATOM      9  C8  UNK     1      44.264  22.590  10.832  1.00  0.00     0.075 A 
ATOM     10  C9  UNK     1      45.592  22.161  10.833  1.00  0.00     0.071 A 
ATOM     11  C10 UNK     1      45.888  20.801  10.949  1.00  0.00     0.074 A 
ENDROOT
BRANCH   5  12
ATOM     12  C4  UNK     1      39.566  21.862  11.035  1.00  0.00    -0.002 A 
ATOM     13  C12 UNK     1      39.223  22.804  12.008  1.00  0.00     0.017 A 
ATOM     14  C14 UNK     1      37.960  23.394  11.996  1.00  0.00     0.037 A 
ATOM     15  C15 UNK     1      37.034  23.044  11.013  1.00  0.00     0.065 A 
ATOM     16  C13 UNK     1      37.373  22.104  10.040  1.00  0.00     0.037 A 
ATOM     17  C11 UNK     1      38.637  21.513  10.051  1.00  0.00     0.017 A 
BRANCH  15  18
ATOM     18  O5  UNK     1      35.802  23.620  11.003  1.00  0.00    -0.361 OA
ATOM     19  H10 UNK     1      35.145  22.953  10.737  1.00  0.00     0.217 HD
ENDBRANCH  15  18
ENDBRANCH   5  12
BRANCH   8  20
ATOM     20  O2  UNK     1      45.201  18.553  11.178  1.00  0.00    -0.360 OA
ATOM     21  H8  UNK     1      44.988  18.076  10.360  1.00  0.00     0.217 HD
ENDBRANCH   8  20
BRANCH  10  22
ATOM     22  O4  UNK     1      46.600  23.069  10.721  1.00  0.00    -0.361 OA
ATOM     23  H9  UNK     1      46.220  23.939  10.511  1.00  0.00     0.217 HD
ENDBRANCH  10  22
TORSDOF 4
ENDMDL
MODEL 10
REMARK VINA RESULT:      -5.5      4.848      8.082
REMARK  4 active torsions:
REMARK  status: ('A' for Active; 'I' for Inactive)
REMARK    1  A    between atoms: O2_2  and  C7_12 
REMARK    2  A    between atoms: O4_4  and  C9_14 
REMARK    3  A    between atoms: O5_5  and  C15_20 
REMARK    4  A    between atoms: C3_8  and  C4_9 
ROOT
ATOM      1  O1  UNK     1      42.547  22.918  12.662  1.00  0.00    -0.309 OA
ATOM      2  O3  UNK     1      43.684  24.951   9.319  1.00  0.00    -0.287 OA
ATOM      3  C1  UNK     1      42.967  25.046  11.569  1.00  0.00     0.081 A 
ATOM      4  C2  UNK     1      42.589  24.289  12.676  1.00  0.00     0.095 A 
ATOM      5  C3  UNK     1      42.889  22.259  11.491  1.00  0.00     0.090 A 
ATOM      6  C5  UNK     1      43.340  24.350  10.327  1.00  0.00     0.190 A 
ATOM      7  C6  UNK     1      43.276  22.875  10.362  1.00  0.00     0.094 A 
ATOM      8  C7  UNK     1      42.992  26.440  11.640  1.00  0.00     0.085 A 
ATOM      9  C8  UNK     1      42.232  24.924  13.866  1.00  0.00     0.075 A 
ATOM     10  C9  UNK     1      42.255  26.317  13.943  1.00  0.00     0.071 A 
ATOM     11  C10 UNK     1      42.634  27.074  12.831  1.00  0.00     0.074 A 
ENDROOT
BRANCH   5  12
ATOM     12  C4  UNK     1      42.816  20.788  11.588  1.00  0.00    -0.002 A 
ATOM     13  C12 UNK     1      41.577  20.143  11.557  1.00  0.00     0.017 A 
ATOM     14  C14 UNK     1      41.509  18.753  11.649  1.00  0.00     0.037 A 
ATOM     15  C15 UNK     1      42.678  18.003  11.772  1.00  0.00     0.065 A 
ATOM     16  C13 UNK     1      43.917  18.643  11.804  1.00  0.00     0.037 A 
ATOM     17  C11 UNK     1      43.986  20.033  11.711  1.00  0.00     0.017 A 
BRANCH  15  18
ATOM     18  O5  UNK     1      42.611  16.647  11.863  1.00  0.00    -0.361 OA
ATOM     19  H10 UNK     1      41.689  16.389  12.037  1.00  0.00     0.217 HD
ENDBRANCH  15  18
ENDBRANCH   5  12
BRANCH   8  20
ATOM     20  O2  UNK     1      43.354  27.224  10.587  1.00  0.00    -0.360 OA
ATOM     21  H8  UNK     1      44.243  26.989  10.279  1.00  0.00     0.217 HD
ENDBRANCH   8  20
BRANCH  10  22
ATOM     22  O4  UNK     1      41.908  26.940  15.102  1.00  0.00    -0.361 OA
ATOM     23  H9  UNK     1      40.938  26.982  15.160  1.00  0.00     0.217 HD
ENDBRANCH  10  22
TORSDOF 4
ENDMDL
MODEL 11
REMARK VINA RESULT:      -5.5      4.948      8.275
REMARK  4 active torsions:
REMARK  status: ('A' for Active; 'I' for Inactive)
REMARK    1  A    between atoms: O2_2  and  C7_12 
REMARK    2  A    between atoms: O4_4  and  C9_14 
REMARK    3  A    between atoms: O5_5  and  C15_20 
REMARK    4  A    between atoms: C3_8  and  C4_9 
ROOT
ATOM      1  O1  UNK     1      44.303  18.515  11.672  1.00  0.00    -0.309 OA
ATOM      2  O3  UNK     1      40.979  20.702  10.794  1.00  0.00    -0.287 OA
ATOM      3  C1  UNK     1      41.925  18.896  11.989  1.00  0.00     0.081 A 
ATOM      4  C2  UNK     1      43.099  18.192  12.246  1.00  0.00     0.095 A 
ATOM      5  C3  UNK     1      44.348  19.585  10.791  1.00  0.00     0.090 A 
ATOM      6  C5  UNK     1      41.970  20.038  11.063  1.00  0.00     0.190 A 
ATOM      7  C6  UNK     1      43.288  20.344  10.469  1.00  0.00     0.094 A 
ATOM      8  C7  UNK     1      40.727  18.523  12.603  1.00  0.00     0.085 A 
ATOM      9  C8  UNK     1      43.084  17.106  13.122  1.00  0.00     0.075 A 
ATOM     10  C9  UNK     1      41.890  16.729  13.738  1.00  0.00     0.071 A 
ATOM     11  C10 UNK     1      40.714  17.435  13.478  1.00  0.00     0.074 A 
ENDROOT
BRANCH   5  12
ATOM     12  C4  UNK     1      45.690  19.849  10.237  1.00  0.00    -0.002 A 
ATOM     13  C12 UNK     1      46.787  19.097  10.664  1.00  0.00     0.017 A 
ATOM     14  C14 UNK     1      48.055  19.348  10.140  1.00  0.00     0.037 A 
ATOM     15  C15 UNK     1      48.231  20.351   9.188  1.00  0.00     0.065 A 
ATOM     16  C13 UNK     1      47.139  21.105   8.760  1.00  0.00     0.037 A 
ATOM     17  C11 UNK     1      45.870  20.855   9.283  1.00  0.00     0.017 A 
BRANCH  15  18
ATOM     18  O5  UNK     1      49.469  20.596   8.678  1.00  0.00    -0.361 OA
ATOM     19  H10 UNK     1      49.697  19.887   8.052  1.00  0.00     0.217 HD
ENDBRANCH  15  18
ENDBRANCH   5  12
BRANCH   8  20
ATOM     20  O2  UNK     1      39.554  19.178  12.385  1.00  0.00    -0.360 OA
ATOM     21  H8  UNK     1      39.711  20.130  12.284  1.00  0.00     0.217 HD
ENDBRANCH   8  20
BRANCH  10  22
ATOM     22  O4  UNK     1      41.871  15.669  14.593  1.00  0.00    -0.361 OA
ATOM     23  H9  UNK     1      42.778  15.496  14.900  1.00  0.00     0.217 HD
ENDBRANCH  10  22
TORSDOF 4
ENDMDL
MODEL 12
REMARK VINA RESULT:      -5.4      3.405      4.385
REMARK  4 active torsions:
REMARK  status: ('A' for Active; 'I' for Inactive)
REMARK    1  A    between atoms: O2_2  and  C7_12 
REMARK    2  A    between atoms: O4_4  and  C9_14 
REMARK    3  A    between atoms: O5_5  and  C15_20 
REMARK    4  A    between atoms: C3_8  and  C4_9 
ROOT
ATOM      1  O1  UNK     1      42.762  23.430  11.512  1.00  0.00    -0.309 OA
ATOM      2  O3  UNK     1      40.158  20.302  11.325  1.00  0.00    -0.287 OA
ATOM      3  C1  UNK     1      42.369  21.082  11.031  1.00  0.00     0.081 A 
ATOM      4  C2  UNK     1      43.206  22.193  11.118  1.00  0.00     0.095 A 
ATOM      5  C3  UNK     1      41.420  23.581  11.829  1.00  0.00     0.090 A 
ATOM      6  C5  UNK     1      40.947  21.235  11.376  1.00  0.00     0.190 A 
ATOM      7  C6  UNK     1      40.519  22.586  11.791  1.00  0.00     0.094 A 
ATOM      8  C7  UNK     1      42.876  19.845  10.626  1.00  0.00     0.085 A 
ATOM      9  C8  UNK     1      44.558  22.074  10.799  1.00  0.00     0.075 A 
ATOM     10  C9  UNK     1      45.070  20.841  10.392  1.00  0.00     0.071 A 
ATOM     11  C10 UNK     1      44.230  19.729  10.305  1.00  0.00     0.074 A 
ENDROOT
BRANCH   5  12
ATOM     12  C4  UNK     1      41.052  24.948  12.244  1.00  0.00    -0.002 A 
ATOM     13  C12 UNK     1      39.736  25.242  12.605  1.00  0.00     0.017 A 
ATOM     14  C14 UNK     1      39.389  26.535  12.997  1.00  0.00     0.037 A 
ATOM     15  C15 UNK     1      40.357  27.539  13.029  1.00  0.00     0.065 A 
ATOM     16  C13 UNK     1      41.673  27.249  12.668  1.00  0.00     0.037 A 
ATOM     17  C11 UNK     1      42.021  25.956  12.277  1.00  0.00     0.017 A 
BRANCH  15  18
ATOM     18  O5  UNK     1      40.017  28.800  13.410  1.00  0.00    -0.361 OA
ATOM     19  H10 UNK     1      39.349  29.146  12.793  1.00  0.00     0.217 HD
ENDBRANCH  15  18
ENDBRANCH   5  12
BRANCH   8  20
ATOM     20  O2  UNK     1      42.100  18.730  10.525  1.00  0.00    -0.360 OA
ATOM     21  H8  UNK     1      42.402  18.050  11.147  1.00  0.00     0.217 HD
ENDBRANCH   8  20
BRANCH  10  22
ATOM     22  O4  UNK     1      46.389  20.722  10.080  1.00  0.00    -0.361 OA
ATOM     23  H9  UNK     1      46.886  21.424  10.534  1.00  0.00     0.217 HD
ENDBRANCH  10  22
TORSDOF 4
ENDMDL
MODEL 13
REMARK VINA RESULT:      -5.4      4.014      4.864
REMARK  4 active torsions:
REMARK  status: ('A' for Active; 'I' for Inactive)
REMARK    1  A    between atoms: O2_2  and  C7_12 
REMARK    2  A    between atoms: O4_4  and  C9_14 
REMARK    3  A    between atoms: O5_5  and  C15_20 
REMARK    4  A    between atoms: C3_8  and  C4_9 
ROOT
ATOM      1  O1  UNK     1      43.297  21.195  11.818  1.00  0.00    -0.309 OA
ATOM      2  O3  UNK     1      39.600  19.642  12.535  1.00  0.00    -0.287 OA
ATOM      3  C1  UNK     1      41.911  19.247  12.242  1.00  0.00     0.081 A 
ATOM      4  C2  UNK     1      43.145  19.843  11.996  1.00  0.00     0.095 A 
ATOM      5  C3  UNK     1      42.170  22.000  11.880  1.00  0.00     0.090 A 
ATOM      6  C5  UNK     1      40.713  20.098  12.319  1.00  0.00     0.190 A 
ATOM      7  C6  UNK     1      40.929  21.546  12.118  1.00  0.00     0.094 A 
ATOM      8  C7  UNK     1      41.815  17.865  12.416  1.00  0.00     0.085 A 
ATOM      9  C8  UNK     1      44.296  19.059  11.921  1.00  0.00     0.075 A 
ATOM     10  C9  UNK     1      44.207  17.677  12.093  1.00  0.00     0.071 A 
ATOM     11  C10 UNK     1      42.968  17.081  12.340  1.00  0.00     0.074 A 
ENDROOT
BRANCH   5  12
ATOM     12  C4  UNK     1      42.447  23.437  11.681  1.00  0.00    -0.002 A 
ATOM     13  C12 UNK     1      43.358  23.848  10.706  1.00  0.00     0.017 A 
ATOM     14  C14 UNK     1      43.620  25.205  10.519  1.00  0.00     0.037 A 
ATOM     15  C15 UNK     1      42.972  26.156  11.307  1.00  0.00     0.065 A 
ATOM     16  C13 UNK     1      42.062  25.749  12.283  1.00  0.00     0.037 A 
ATOM     17  C11 UNK     1      41.799  24.392  12.470  1.00  0.00     0.017 A 
BRANCH  15  18
ATOM     18  O5  UNK     1      43.228  27.479  11.126  1.00  0.00    -0.361 OA
ATOM     19  H10 UNK     1      43.183  27.681  10.175  1.00  0.00     0.217 HD
ENDBRANCH  15  18
ENDBRANCH   5  12
BRANCH   8  20
ATOM     20  O2  UNK     1      40.633  17.234  12.660  1.00  0.00    -0.360 OA
ATOM     21  H8  UNK     1      40.664  16.319  12.340  1.00  0.00     0.217 HD
ENDBRANCH   8  20
BRANCH  10  22
ATOM     22  O4  UNK     1      45.328  16.908  12.021  1.00  0.00    -0.361 OA
ATOM     23  H9  UNK     1      45.122  16.018  12.353  1.00  0.00     0.217 HD
ENDBRANCH  10  22
TORSDOF 4
ENDMDL
MODEL 14
REMARK VINA RESULT:      -5.4      3.946      7.030
REMARK  4 active torsions:
REMARK  status: ('A' for Active; 'I' for Inactive)
REMARK    1  A    between atoms: O2_2  and  C7_12 
REMARK    2  A    between atoms: O4_4  and  C9_14 
REMARK    3  A    between atoms: O5_5  and  C15_20 
REMARK    4  A    between atoms: C3_8  and  C4_9 
ROOT
ATOM      1  O1  UNK     1      44.142  20.117  10.253  1.00  0.00    -0.309 OA
ATOM      2  O3  UNK     1      46.319  17.465  12.450  1.00  0.00    -0.287 OA
ATOM      3  C1  UNK     1      46.286  19.075  10.721  1.00  0.00     0.081 A 
ATOM      4  C2  UNK     1      45.484  19.964  10.009  1.00  0.00     0.095 A 
ATOM      5  C3  UNK     1      43.560  19.346  11.248  1.00  0.00     0.090 A 
ATOM      6  C5  UNK     1      45.674  18.262  11.784  1.00  0.00     0.190 A 
ATOM      7  C6  UNK     1      44.227  18.461  12.006  1.00  0.00     0.094 A 
ATOM      8  C7  UNK     1      47.647  18.962  10.430  1.00  0.00     0.085 A 
ATOM      9  C8  UNK     1      46.039  20.748   8.998  1.00  0.00     0.075 A 
ATOM     10  C9  UNK     1      47.399  20.639   8.703  1.00  0.00     0.071 A 
ATOM     11  C10 UNK     1      48.201  19.746   9.418  1.00  0.00     0.074 A 
ENDROOT
BRANCH   5  12
ATOM     12  C4  UNK     1      42.116  19.593  11.431  1.00  0.00    -0.002 A 
ATOM     13  C12 UNK     1      41.426  18.982  12.480  1.00  0.00     0.017 A 
ATOM     14  C14 UNK     1      40.062  19.216  12.651  1.00  0.00     0.037 A 
ATOM     15  C15 UNK     1      39.383  20.062  11.775  1.00  0.00     0.065 A 
ATOM     16  C13 UNK     1      40.069  20.674  10.725  1.00  0.00     0.037 A 
ATOM     17  C11 UNK     1      41.433  20.441  10.553  1.00  0.00     0.017 A 
BRANCH  15  18
ATOM     18  O5  UNK     1      38.052  20.289  11.942  1.00  0.00    -0.361 OA
ATOM     19  H10 UNK     1      37.603  20.177  11.086  1.00  0.00     0.217 HD
ENDBRANCH  15  18
ENDBRANCH   5  12
BRANCH   8  20
ATOM     20  O2  UNK     1      48.472  18.109  11.097  1.00  0.00    -0.360 OA
ATOM     21  H8  UNK     1      49.393  18.406  11.031  1.00  0.00     0.217 HD
ENDBRANCH   8  20
BRANCH  10  22
ATOM     22  O4  UNK     1      47.944  21.402   7.717  1.00  0.00    -0.361 OA
ATOM     23  H9  UNK     1      48.522  20.844   7.168  1.00  0.00     0.217 HD
ENDBRANCH  10  22
TORSDOF 4
ENDMDL
MODEL 15
REMARK VINA RESULT:      -5.4      4.677      8.801
REMARK  4 active torsions:
REMARK  status: ('A' for Active; 'I' for Inactive)
REMARK    1  A    between atoms: O2_2  and  C7_12 
REMARK    2  A    between atoms: O4_4  and  C9_14 
REMARK    3  A    between atoms: O5_5  and  C15_20 
REMARK    4  A    between atoms: C3_8  and  C4_9 
ROOT
ATOM      1  O1  UNK     1      44.814  22.869  10.626  1.00  0.00    -0.309 OA
ATOM      2  O3  UNK     1      41.222  21.321  11.765  1.00  0.00    -0.287 OA
ATOM      3  C1  UNK     1      42.562  23.243  11.454  1.00  0.00     0.081 A 
ATOM      4  C2  UNK     1      43.812  23.705  11.050  1.00  0.00     0.095 A 
ATOM      5  C3  UNK     1      44.572  21.504  10.608  1.00  0.00     0.090 A 
ATOM      6  C5  UNK     1      42.297  21.796  11.427  1.00  0.00     0.190 A 
ATOM      7  C6  UNK     1      43.408  20.938  10.965  1.00  0.00     0.094 A 
ATOM      8  C7  UNK     1      41.578  24.140  11.875  1.00  0.00     0.085 A 
ATOM      9  C8  UNK     1      44.088  25.072  11.064  1.00  0.00     0.075 A 
ATOM     10  C9  UNK     1      43.109  25.973  11.484  1.00  0.00     0.071 A 
ATOM     11  C10 UNK     1      41.856  25.508  11.889  1.00  0.00     0.074 A 
ENDROOT
BRANCH   5  12
ATOM     12  C4  UNK     1      45.713  20.699  10.130  1.00  0.00    -0.002 A 
ATOM     13  C12 UNK     1      46.138  19.583  10.856  1.00  0.00     0.017 A 
ATOM     14  C14 UNK     1      47.217  18.823  10.405  1.00  0.00     0.037 A 
ATOM     15  C15 UNK     1      47.875  19.176   9.226  1.00  0.00     0.065 A 
ATOM     16  C13 UNK     1      47.454  20.290   8.500  1.00  0.00     0.037 A 
ATOM     17  C11 UNK     1      46.375  21.050   8.950  1.00  0.00     0.017 A 
BRANCH  15  18
ATOM     18  O5  UNK     1      48.928  18.435   8.787  1.00  0.00    -0.361 OA
ATOM     19  H10 UNK     1      49.272  17.907   9.529  1.00  0.00     0.217 HD
ENDBRANCH  15  18
ENDBRANCH   5  12
BRANCH   8  20
ATOM     20  O2  UNK     1      40.341  23.739  12.279  1.00  0.00    -0.360 OA
ATOM     21  H8  UNK     1      39.939  23.157  11.615  1.00  0.00     0.217 HD
ENDBRANCH   8  20
BRANCH  10  22
ATOM     22  O4  UNK     1      43.375  27.309  11.499  1.00  0.00    -0.361 OA
ATOM     23  H9  UNK     1      43.617  27.592  10.600  1.00  0.00     0.217 HD
ENDBRANCH  10  22
TORSDOF 4
ENDMDL
MODEL 16
REMARK VINA RESULT:      -5.4      3.644      8.121
REMARK  4 active torsions:
REMARK  status: ('A' for Active; 'I' for Inactive)
REMARK    1  A    between atoms: O2_2  and  C7_12 
REMARK    2  A    between atoms: O4_4  and  C9_14 
REMARK    3  A    between atoms: O5_5  and  C15_20 
REMARK    4  A    between atoms: C3_8  and  C4_9 
ROOT
ATOM      1  O1  UNK     1      43.414  20.511  10.567  1.00  0.00    -0.309 OA
ATOM      2  O3  UNK     1      42.533  17.167  12.721  1.00  0.00    -0.287 OA
ATOM      3  C1  UNK     1      41.778  19.209  11.803  1.00  0.00     0.081 A 
ATOM      4  C2  UNK     1      42.146  20.328  11.059  1.00  0.00     0.095 A 
ATOM      5  C3  UNK     1      44.371  19.542  10.831  1.00  0.00     0.090 A 
ATOM      6  C5  UNK     1      42.787  18.174  12.077  1.00  0.00     0.190 A 
ATOM      7  C6  UNK     1      44.137  18.419  11.528  1.00  0.00     0.094 A 
ATOM      8  C7  UNK     1      40.472  19.075  12.278  1.00  0.00     0.085 A 
ATOM      9  C8  UNK     1      41.208  21.322  10.783  1.00  0.00     0.075 A 
ATOM     10  C9  UNK     1      39.901  21.193  11.256  1.00  0.00     0.071 A 
ATOM     11  C10 UNK     1      39.534  20.071  12.003  1.00  0.00     0.074 A 
ENDROOT
BRANCH   5  12
ATOM     12  C4  UNK     1      45.696  19.836  10.251  1.00  0.00    -0.002 A 
ATOM     13  C12 UNK     1      45.838  20.845   9.297  1.00  0.00     0.017 A 
ATOM     14  C14 UNK     1      47.090  21.121   8.749  1.00  0.00     0.037 A 
ATOM     15  C15 UNK     1      48.206  20.389   9.154  1.00  0.00     0.065 A 
ATOM     16  C13 UNK     1      48.069  19.379  10.107  1.00  0.00     0.037 A 
ATOM     17  C11 UNK     1      46.816  19.103  10.655  1.00  0.00     0.017 A 
BRANCH  15  18
ATOM     18  O5  UNK     1      49.428  20.658   8.619  1.00  0.00    -0.361 OA
ATOM     19  H10 UNK     1      50.116  20.345   9.232  1.00  0.00     0.217 HD
ENDBRANCH  15  18
ENDBRANCH   5  12
BRANCH   8  20
ATOM     20  O2  UNK     1      40.062  18.001  13.009  1.00  0.00    -0.360 OA
ATOM     21  H8  UNK     1      40.772  17.343  13.073  1.00  0.00     0.217 HD
ENDBRANCH   8  20
BRANCH  10  22
ATOM     22  O4  UNK     1      38.982  22.162  10.989  1.00  0.00    -0.361 OA
ATOM     23  H9  UNK     1      39.416  22.882  10.499  1.00  0.00     0.217 HD
ENDBRANCH  10  22
TORSDOF 4
ENDMDL
MODEL 17
REMARK VINA RESULT:      -5.4      3.090      7.689
REMARK  4 active torsions:
REMARK  status: ('A' for Active; 'I' for Inactive)
REMARK    1  A    between atoms: O2_2  and  C7_12 
REMARK    2  A    between atoms: O4_4  and  C9_14 
REMARK    3  A    between atoms: O5_5  and  C15_20 
REMARK    4  A    between atoms: C3_8  and  C4_9 
ROOT
ATOM      1  O1  UNK     1      42.568  20.295  10.482  1.00  0.00    -0.309 OA
ATOM      2  O3  UNK     1      41.399  18.456  13.924  1.00  0.00    -0.287 OA
ATOM      3  C1  UNK     1      40.787  19.743  12.039  1.00  0.00     0.081 A 
ATOM      4  C2  UNK     1      41.254  20.348  10.874  1.00  0.00     0.095 A 
ATOM      5  C3  UNK     1      43.470  19.616  11.286  1.00  0.00     0.090 A 
ATOM      6  C5  UNK     1      41.740  19.013  12.890  1.00  0.00     0.190 A 
ATOM      7  C6  UNK     1      43.142  18.987  12.426  1.00  0.00     0.094 A 
ATOM      8  C7  UNK     1      39.438  19.828  12.389  1.00  0.00     0.085 A 
ATOM      9  C8  UNK     1      40.371  21.044  10.048  1.00  0.00     0.075 A 
ATOM     10  C9  UNK     1      39.022  21.133  10.393  1.00  0.00     0.071 A 
ATOM     11  C10 UNK     1      38.556  20.526  11.562  1.00  0.00     0.074 A 
ENDROOT
BRANCH   5  12
ATOM     12  C4  UNK     1      44.853  19.617  10.769  1.00  0.00    -0.002 A 
ATOM     13  C12 UNK     1      45.802  18.741  11.301  1.00  0.00     0.017 A 
ATOM     14  C14 UNK     1      47.108  18.743  10.812  1.00  0.00     0.037 A 
ATOM     15  C15 UNK     1      47.470  19.620   9.790  1.00  0.00     0.065 A 
ATOM     16  C13 UNK     1      46.525  20.497   9.257  1.00  0.00     0.037 A 
ATOM     17  C11 UNK     1      45.218  20.496   9.745  1.00  0.00     0.017 A 
BRANCH  15  18
ATOM     18  O5  UNK     1      48.745  19.622   9.314  1.00  0.00    -0.361 OA
ATOM     19  H10 UNK     1      49.305  19.098   9.913  1.00  0.00     0.217 HD
ENDBRANCH  15  18
ENDBRANCH   5  12
BRANCH   8  20
ATOM     20  O2  UNK     1      38.933  19.254  13.516  1.00  0.00    -0.360 OA
ATOM     21  H8  UNK     1      39.351  19.631  14.305  1.00  0.00     0.217 HD
ENDBRANCH   8  20
BRANCH  10  22
ATOM     22  O4  UNK     1      38.158  21.811   9.590  1.00  0.00    -0.361 OA
ATOM     23  H9  UNK     1      37.302  21.347   9.583  1.00  0.00     0.217 HD
ENDBRANCH  10  22
TORSDOF 4
ENDMDL
MODEL 18
REMARK VINA RESULT:      -5.4      3.628      5.169
REMARK  4 active torsions:
REMARK  status: ('A' for Active; 'I' for Inactive)
REMARK    1  A    between atoms: O2_2  and  C7_12 
REMARK    2  A    between atoms: O4_4  and  C9_14 
REMARK    3  A    between atoms: O5_5  and  C15_20 
REMARK    4  A    between atoms: C3_8  and  C4_9 
ROOT
ATOM      1  O1  UNK     1      41.595  23.305  11.662  1.00  0.00    -0.309 OA
ATOM      2  O3  UNK     1      45.612  23.961  11.469  1.00  0.00    -0.287 OA
ATOM      3  C1  UNK     1      43.821  22.440  11.219  1.00  0.00     0.081 A 
ATOM      4  C2  UNK     1      42.439  22.284  11.303  1.00  0.00     0.095 A 
ATOM      5  C3  UNK     1      42.146  24.542  11.961  1.00  0.00     0.090 A 
ATOM      6  C5  UNK     1      44.408  23.753  11.525  1.00  0.00     0.190 A 
ATOM      7  C6  UNK     1      43.459  24.818  11.909  1.00  0.00     0.094 A 
ATOM      8  C7  UNK     1      44.632  21.365  10.847  1.00  0.00     0.085 A 
ATOM      9  C8  UNK     1      41.857  21.050  11.015  1.00  0.00     0.075 A 
ATOM     10  C9  UNK     1      42.663  19.973  10.644  1.00  0.00     0.071 A 
ATOM     11  C10 UNK     1      44.048  20.130  10.560  1.00  0.00     0.074 A 
ENDROOT
BRANCH   5  12
ATOM     12  C4  UNK     1      41.150  25.568  12.329  1.00  0.00    -0.002 A 
ATOM     13  C12 UNK     1      39.836  25.197  12.624  1.00  0.00     0.017 A 
ATOM     14  C14 UNK     1      38.896  26.167  12.970  1.00  0.00     0.037 A 
ATOM     15  C15 UNK     1      39.265  27.511  13.023  1.00  0.00     0.065 A 
ATOM     16  C13 UNK     1      40.576  27.885  12.727  1.00  0.00     0.037 A 
ATOM     17  C11 UNK     1      41.518  26.916  12.381  1.00  0.00     0.017 A 
BRANCH  15  18
ATOM     18  O5  UNK     1      38.347  28.457  13.360  1.00  0.00    -0.361 OA
ATOM     19  H10 UNK     1      37.870  28.163  14.155  1.00  0.00     0.217 HD
ENDBRANCH  15  18
ENDBRANCH   5  12
BRANCH   8  20
ATOM     20  O2  UNK     1      45.987  21.466  10.749  1.00  0.00    -0.360 OA
ATOM     21  H8  UNK     1      46.417  20.879  11.390  1.00  0.00     0.217 HD
ENDBRANCH   8  20
BRANCH  10  22
ATOM     22  O4  UNK     1      42.098  18.766  10.362  1.00  0.00    -0.361 OA
ATOM     23  H9  UNK     1      41.137  18.827  10.503  1.00  0.00     0.217 HD
ENDBRANCH  10  22
TORSDOF 4
ENDMDL
