MODEL 1
REMARK VINA RESULT:      -7.9      0.000      0.000
REMARK  4 active torsions:
REMARK  status: ('A' for Active; 'I' for Inactive)
REMARK    1  A    between atoms: O2_2  and  C7_12 
REMARK    2  A    between atoms: O4_4  and  C9_14 
REMARK    3  A    between atoms: O5_5  and  C15_20 
REMARK    4  A    between atoms: C3_8  and  C4_9 
ROOT
ATOM      1  O1  UNK     1      39.741  15.492  -0.047  1.00  0.00    -0.309 OA
ATOM      2  O3  UNK     1      41.195  16.436  -3.733  1.00  0.00    -0.287 OA
ATOM      3  C1  UNK     1      40.021  17.141  -1.808  1.00  0.00     0.081 A 
ATOM      4  C2  UNK     1      39.552  16.752  -0.555  1.00  0.00     0.095 A 
ATOM      5  C3  UNK     1      40.423  14.564  -0.819  1.00  0.00     0.090 A 
ATOM      6  C5  UNK     1      40.754  16.162  -2.627  1.00  0.00     0.190 A 
ATOM      7  C6  UNK     1      40.929  14.820  -2.036  1.00  0.00     0.094 A 
ATOM      8  C7  UNK     1      39.800  18.439  -2.274  1.00  0.00     0.085 A 
ATOM      9  C8  UNK     1      38.856  17.661   0.242  1.00  0.00     0.075 A 
ATOM     10  C9  UNK     1      38.632  18.959  -0.219  1.00  0.00     0.071 A 
ATOM     11  C10 UNK     1      39.103  19.347  -1.475  1.00  0.00     0.074 A 
ENDROOT
BRANCH   5  12
ATOM     12  C4  UNK     1      40.575  13.244  -0.176  1.00  0.00    -0.002 A 
ATOM     13  C12 UNK     1      40.251  13.079   1.172  1.00  0.00     0.017 A 
ATOM     14  C14 UNK     1      40.395  11.832   1.780  1.00  0.00     0.037 A 
ATOM     15  C15 UNK     1      40.864  10.745   1.041  1.00  0.00     0.065 A 
ATOM     16  C13 UNK     1      41.190  10.907  -0.305  1.00  0.00     0.037 A 
ATOM     17  C11 UNK     1      41.045  12.154  -0.914  1.00  0.00     0.017 A 
BRANCH  15  18
ATOM     18  O5  UNK     1      41.006   9.529   1.635  1.00  0.00    -0.361 OA
ATOM     19  H10 UNK     1      40.123   9.163   1.817  1.00  0.00     0.217 HD
ENDBRANCH  15  18
ENDBRANCH   5  12
BRANCH   8  20
ATOM     20  O2  UNK     1      40.239  18.867  -3.490  1.00  0.00    -0.360 OA
ATOM     21  H8  UNK     1      40.579  19.773  -3.428  1.00  0.00     0.217 HD
ENDBRANCH   8  20
BRANCH  10  22
ATOM     22  O4  UNK     1      37.954  19.849   0.556  1.00  0.00    -0.361 OA
ATOM     23  H9  UNK     1      38.153  20.751   0.250  1.00  0.00     0.217 HD
ENDBRANCH  10  22
TORSDOF 4
ENDMDL
MODEL 2
REMARK VINA RESULT:      -7.9      0.021      1.081
REMARK  4 active torsions:
REMARK  status: ('A' for Active; 'I' for Inactive)
REMARK    1  A    between atoms: O2_2  and  C7_12 
REMARK    2  A    between atoms: O4_4  and  C9_14 
REMARK    3  A    between atoms: O5_5  and  C15_20 
REMARK    4  A    between atoms: C3_8  and  C4_9 
ROOT
ATOM      1  O1  UNK     1      39.744  15.496  -0.061  1.00  0.00    -0.309 OA
ATOM      2  O3  UNK     1      41.231  16.445  -3.734  1.00  0.00    -0.287 OA
ATOM      3  C1  UNK     1      40.037  17.147  -1.819  1.00  0.00     0.081 A 
ATOM      4  C2  UNK     1      39.557  16.757  -0.571  1.00  0.00     0.095 A 
ATOM      5  C3  UNK     1      40.434  14.570  -0.828  1.00  0.00     0.090 A 
ATOM      6  C5  UNK     1      40.779  16.170  -2.632  1.00  0.00     0.190 A 
ATOM      7  C6  UNK     1      40.951  14.827  -2.040  1.00  0.00     0.094 A 
ATOM      8  C7  UNK     1      39.819  18.444  -2.287  1.00  0.00     0.085 A 
ATOM      9  C8  UNK     1      38.852  17.664   0.220  1.00  0.00     0.075 A 
ATOM     10  C9  UNK     1      38.631  18.962  -0.243  1.00  0.00     0.071 A 
ATOM     11  C10 UNK     1      39.112  19.351  -1.495  1.00  0.00     0.074 A 
ENDROOT
BRANCH   5  12
ATOM     12  C4  UNK     1      40.582  13.250  -0.184  1.00  0.00    -0.002 A 
ATOM     13  C12 UNK     1      41.051  12.159  -0.919  1.00  0.00     0.017 A 
ATOM     14  C14 UNK     1      41.190  10.912  -0.310  1.00  0.00     0.037 A 
ATOM     15  C15 UNK     1      40.861  10.752   1.036  1.00  0.00     0.065 A 
ATOM     16  C13 UNK     1      40.392  11.839   1.773  1.00  0.00     0.037 A 
ATOM     17  C11 UNK     1      40.253  13.087   1.165  1.00  0.00     0.017 A 
BRANCH  15  18
ATOM     18  O5  UNK     1      40.996   9.535   1.630  1.00  0.00    -0.361 OA
ATOM     19  H10 UNK     1      41.743   9.065   1.218  1.00  0.00     0.217 HD
ENDBRANCH  15  18
ENDBRANCH   5  12
BRANCH   8  20
ATOM     20  O2  UNK     1      40.268  18.874  -3.499  1.00  0.00    -0.360 OA
ATOM     21  H8  UNK     1      39.614  19.456  -3.916  1.00  0.00     0.217 HD
ENDBRANCH   8  20
BRANCH  10  22
ATOM     22  O4  UNK     1      37.943  19.850   0.527  1.00  0.00    -0.361 OA
ATOM     23  H9  UNK     1      38.230  20.752   0.300  1.00  0.00     0.217 HD
ENDBRANCH  10  22
TORSDOF 4
ENDMDL
MODEL 3
REMARK VINA RESULT:      -7.6      2.398      7.133
REMARK  4 active torsions:
REMARK  status: ('A' for Active; 'I' for Inactive)
REMARK    1  A    between atoms: O2_2  and  C7_12 
REMARK    2  A    between atoms: O4_4  and  C9_14 
REMARK    3  A    between atoms: O5_5  and  C15_20 
REMARK    4  A    between atoms: C3_8  and  C4_9 
ROOT
ATOM      1  O1  UNK     1      40.333  17.004  -1.099  1.00  0.00    -0.309 OA
ATOM      2  O3  UNK     1      36.860  14.917  -0.672  1.00  0.00    -0.287 OA
ATOM      3  C1  UNK     1      39.179  14.867  -1.124  1.00  0.00     0.081 A 
ATOM      4  C2  UNK     1      40.330  15.641  -1.255  1.00  0.00     0.095 A 
ATOM      5  C3  UNK     1      39.134  17.638  -0.807  1.00  0.00     0.090 A 
ATOM      6  C5  UNK     1      37.907  15.534  -0.804  1.00  0.00     0.190 A 
ATOM      7  C6  UNK     1      37.962  17.002  -0.649  1.00  0.00     0.094 A 
ATOM      8  C7  UNK     1      39.235  13.482  -1.292  1.00  0.00     0.085 A 
ATOM      9  C8  UNK     1      41.548  15.032  -1.555  1.00  0.00     0.075 A 
ATOM     10  C9  UNK     1      41.610  13.649  -1.725  1.00  0.00     0.071 A 
ATOM     11  C10 UNK     1      40.455  12.875  -1.594  1.00  0.00     0.074 A 
ENDROOT
BRANCH   5  12
ATOM     12  C4  UNK     1      39.252  19.101  -0.655  1.00  0.00    -0.002 A 
ATOM     13  C12 UNK     1      39.978  19.848  -1.586  1.00  0.00     0.017 A 
ATOM     14  C14 UNK     1      40.089  21.231  -1.441  1.00  0.00     0.037 A 
ATOM     15  C15 UNK     1      39.474  21.872  -0.366  1.00  0.00     0.065 A 
ATOM     16  C13 UNK     1      38.749  21.130   0.566  1.00  0.00     0.037 A 
ATOM     17  C11 UNK     1      38.637  19.747   0.422  1.00  0.00     0.017 A 
BRANCH  15  18
ATOM     18  O5  UNK     1      39.584  23.221  -0.225  1.00  0.00    -0.361 OA
ATOM     19  H10 UNK     1      39.708  23.620  -1.104  1.00  0.00     0.217 HD
ENDBRANCH  15  18
ENDBRANCH   5  12
BRANCH   8  20
ATOM     20  O2  UNK     1      38.139  12.682  -1.174  1.00  0.00    -0.360 OA
ATOM     21  H8  UNK     1      38.125  12.019  -1.882  1.00  0.00     0.217 HD
ENDBRANCH   8  20
BRANCH  10  22
ATOM     22  O4  UNK     1      42.798  13.052  -2.018  1.00  0.00    -0.361 OA
ATOM     23  H9  UNK     1      42.690  12.087  -1.955  1.00  0.00     0.217 HD
ENDBRANCH  10  22
TORSDOF 4
ENDMDL
MODEL 4
REMARK VINA RESULT:      -7.2      1.502      6.633
REMARK  4 active torsions:
REMARK  status: ('A' for Active; 'I' for Inactive)
REMARK    1  A    between atoms: O2_2  and  C7_12 
REMARK    2  A    between atoms: O4_4  and  C9_14 
REMARK    3  A    between atoms: O5_5  and  C15_20 
REMARK    4  A    between atoms: C3_8  and  C4_9 
ROOT
ATOM      1  O1  UNK     1      39.830  14.322   0.200  1.00  0.00    -0.309 OA
ATOM      2  O3  UNK     1      42.310  12.454  -2.437  1.00  0.00    -0.287 OA
ATOM      3  C1  UNK     1      40.995  12.302  -0.480  1.00  0.00     0.081 A 
ATOM      4  C2  UNK     1      40.153  13.001   0.382  1.00  0.00     0.095 A 
ATOM      5  C3  UNK     1      40.374  14.991  -0.886  1.00  0.00     0.090 A 
ATOM      6  C5  UNK     1      41.566  13.006  -1.639  1.00  0.00     0.190 A 
ATOM      7  C6  UNK     1      41.190  14.426  -1.790  1.00  0.00     0.094 A 
ATOM      8  C7  UNK     1      41.289  10.957  -0.247  1.00  0.00     0.085 A 
ATOM      9  C8  UNK     1      39.596  12.356   1.487  1.00  0.00     0.075 A 
ATOM     10  C9  UNK     1      39.887  11.013   1.726  1.00  0.00     0.071 A 
ATOM     11  C10 UNK     1      40.732  10.314   0.861  1.00  0.00     0.074 A 
ENDROOT
BRANCH   5  12
ATOM     12  C4  UNK     1      39.957  16.403  -0.990  1.00  0.00    -0.002 A 
ATOM     13  C12 UNK     1      39.268  17.011   0.062  1.00  0.00     0.017 A 
ATOM     14  C14 UNK     1      38.874  18.346  -0.037  1.00  0.00     0.037 A 
ATOM     15  C15 UNK     1      39.167  19.076  -1.189  1.00  0.00     0.065 A 
ATOM     16  C13 UNK     1      39.854  18.472  -2.241  1.00  0.00     0.037 A 
ATOM     17  C11 UNK     1      40.249  17.138  -2.143  1.00  0.00     0.017 A 
BRANCH  15  18
ATOM     18  O5  UNK     1      38.782  20.377  -1.285  1.00  0.00    -0.361 OA
ATOM     19  H10 UNK     1      39.231  20.891  -0.592  1.00  0.00     0.217 HD
ENDBRANCH  15  18
ENDBRANCH   5  12
BRANCH   8  20
ATOM     20  O2  UNK     1      42.105  10.231  -1.059  1.00  0.00    -0.360 OA
ATOM     21  H8  UNK     1      41.921  10.429  -1.990  1.00  0.00     0.217 HD
ENDBRANCH   8  20
BRANCH  10  22
ATOM     22  O4  UNK     1      39.345  10.381   2.803  1.00  0.00    -0.361 OA
ATOM     23  H9  UNK     1      38.724  10.985   3.245  1.00  0.00     0.217 HD
ENDBRANCH  10  22
TORSDOF 4
ENDMDL
MODEL 5
REMARK VINA RESULT:      -7.1      1.575      6.740
REMARK  4 active torsions:
REMARK  status: ('A' for Active; 'I' for Inactive)
REMARK    1  A    between atoms: O2_2  and  C7_12 
REMARK    2  A    between atoms: O4_4  and  C9_14 
REMARK    3  A    between atoms: O5_5  and  C15_20 
REMARK    4  A    between atoms: C3_8  and  C4_9 
ROOT
ATOM      1  O1  UNK     1      40.155  14.358   0.329  1.00  0.00    -0.309 OA
ATOM      2  O3  UNK     1      41.889  11.841  -2.366  1.00  0.00    -0.287 OA
ATOM      3  C1  UNK     1      41.005  12.143  -0.195  1.00  0.00     0.081 A 
ATOM      4  C2  UNK     1      40.414  13.055   0.676  1.00  0.00     0.095 A 
ATOM      5  C3  UNK     1      40.507  14.784  -0.943  1.00  0.00     0.090 A 
ATOM      6  C5  UNK     1      41.370  12.589  -1.549  1.00  0.00     0.190 A 
ATOM      7  C6  UNK     1      41.074  14.000  -1.873  1.00  0.00     0.094 A 
ATOM      8  C7  UNK     1      41.244  10.829   0.212  1.00  0.00     0.085 A 
ATOM      9  C8  UNK     1      40.056  12.658   1.965  1.00  0.00     0.075 A 
ATOM     10  C9  UNK     1      40.293  11.346   2.377  1.00  0.00     0.071 A 
ATOM     11  C10 UNK     1      40.886  10.433   1.502  1.00  0.00     0.074 A 
ENDROOT
BRANCH   5  12
ATOM     12  C4  UNK     1      40.180  16.198  -1.212  1.00  0.00    -0.002 A 
ATOM     13  C12 UNK     1      40.426  16.747  -2.473  1.00  0.00     0.017 A 
ATOM     14  C14 UNK     1      40.117  18.084  -2.726  1.00  0.00     0.037 A 
ATOM     15  C15 UNK     1      39.561  18.875  -1.721  1.00  0.00     0.065 A 
ATOM     16  C13 UNK     1      39.315  18.330  -0.461  1.00  0.00     0.037 A 
ATOM     17  C11 UNK     1      39.623  16.994  -0.207  1.00  0.00     0.017 A 
BRANCH  15  18
ATOM     18  O5  UNK     1      39.262  20.179  -1.969  1.00  0.00    -0.361 OA
ATOM     19  H10 UNK     1      40.062  20.630  -2.290  1.00  0.00     0.217 HD
ENDBRANCH  15  18
ENDBRANCH   5  12
BRANCH   8  20
ATOM     20  O2  UNK     1      41.818   9.900  -0.602  1.00  0.00    -0.360 OA
ATOM     21  H8  UNK     1      42.664   9.603  -0.234  1.00  0.00     0.217 HD
ENDBRANCH   8  20
BRANCH  10  22
ATOM     22  O4  UNK     1      39.945  10.954   3.633  1.00  0.00    -0.361 OA
ATOM     23  H9  UNK     1      39.360  11.627   4.023  1.00  0.00     0.217 HD
ENDBRANCH  10  22
TORSDOF 4
ENDMDL
MODEL 6
REMARK VINA RESULT:      -6.9      1.279      2.804
REMARK  4 active torsions:
REMARK  status: ('A' for Active; 'I' for Inactive)
REMARK    1  A    between atoms: O2_2  and  C7_12 
REMARK    2  A    between atoms: O4_4  and  C9_14 
REMARK    3  A    between atoms: O5_5  and  C15_20 
REMARK    4  A    between atoms: C3_8  and  C4_9 
ROOT
ATOM      1  O1  UNK     1      40.609  15.200  -1.950  1.00  0.00    -0.309 OA
ATOM      2  O3  UNK     1      38.919  18.108   0.349  1.00  0.00    -0.287 OA
ATOM      3  C1  UNK     1      39.885  17.507  -1.722  1.00  0.00     0.081 A 
ATOM      4  C2  UNK     1      40.453  16.467  -2.454  1.00  0.00     0.095 A 
ATOM      5  C3  UNK     1      40.190  14.950  -0.652  1.00  0.00     0.090 A 
ATOM      6  C5  UNK     1      39.429  17.243  -0.349  1.00  0.00     0.190 A 
ATOM      7  C6  UNK     1      39.622  15.865   0.148  1.00  0.00     0.094 A 
ATOM      8  C7  UNK     1      39.749  18.777  -2.287  1.00  0.00     0.085 A 
ATOM      9  C8  UNK     1      40.891  16.690  -3.760  1.00  0.00     0.075 A 
ATOM     10  C9  UNK     1      40.759  17.957  -4.328  1.00  0.00     0.071 A 
ATOM     11  C10 UNK     1      40.189  18.999  -3.593  1.00  0.00     0.074 A 
ENDROOT
BRANCH   5  12
ATOM     12  C4  UNK     1      40.400  13.556  -0.213  1.00  0.00    -0.002 A 
ATOM     13  C12 UNK     1      40.055  13.169   1.084  1.00  0.00     0.017 A 
ATOM     14  C14 UNK     1      40.254  11.852   1.498  1.00  0.00     0.037 A 
ATOM     15  C15 UNK     1      40.798  10.918   0.617  1.00  0.00     0.065 A 
ATOM     16  C13 UNK     1      41.145  11.301  -0.678  1.00  0.00     0.037 A 
ATOM     17  C11 UNK     1      40.946  12.618  -1.094  1.00  0.00     0.017 A 
BRANCH  15  18
ATOM     18  O5  UNK     1      40.993   9.634   1.022  1.00  0.00    -0.361 OA
ATOM     19  H10 UNK     1      40.854   9.040   0.264  1.00  0.00     0.217 HD
ENDBRANCH  15  18
ENDBRANCH   5  12
BRANCH   8  20
ATOM     20  O2  UNK     1      39.200  19.826  -1.614  1.00  0.00    -0.360 OA
ATOM     21  H8  UNK     1      38.393  19.549  -1.153  1.00  0.00     0.217 HD
ENDBRANCH   8  20
BRANCH  10  22
ATOM     22  O4  UNK     1      41.185  18.179  -5.602  1.00  0.00    -0.361 OA
ATOM     23  H9  UNK     1      40.440  18.514  -6.131  1.00  0.00     0.217 HD
ENDBRANCH  10  22
TORSDOF 4
ENDMDL
MODEL 7
REMARK VINA RESULT:      -6.7      1.542      6.791
REMARK  4 active torsions:
REMARK  status: ('A' for Active; 'I' for Inactive)
REMARK    1  A    between atoms: O2_2  and  C7_12 
REMARK    2  A    between atoms: O4_4  and  C9_14 
REMARK    3  A    between atoms: O5_5  and  C15_20 
REMARK    4  A    between atoms: C3_8  and  C4_9 
ROOT
ATOM      1  O1  UNK     1      40.283  14.118   0.661  1.00  0.00    -0.309 OA
ATOM      2  O3  UNK     1      41.575  10.738  -1.211  1.00  0.00    -0.287 OA
ATOM      3  C1  UNK     1      40.855  11.762   0.793  1.00  0.00     0.081 A 
ATOM      4  C2  UNK     1      40.418  12.952   1.371  1.00  0.00     0.095 A 
ATOM      5  C3  UNK     1      40.605  14.112  -0.688  1.00  0.00     0.090 A 
ATOM      6  C5  UNK     1      41.188  11.748  -0.640  1.00  0.00     0.190 A 
ATOM      7  C6  UNK     1      41.029  13.029  -1.358  1.00  0.00     0.094 A 
ATOM      8  C7  UNK     1      40.973  10.603   1.564  1.00  0.00     0.085 A 
ATOM      9  C8  UNK     1      40.093  12.991   2.727  1.00  0.00     0.075 A 
ATOM     10  C9  UNK     1      40.209  11.837   3.502  1.00  0.00     0.071 A 
ATOM     11  C10 UNK     1      40.649  10.645   2.921  1.00  0.00     0.074 A 
ENDROOT
BRANCH   5  12
ATOM     12  C4  UNK     1      40.418  15.415  -1.355  1.00  0.00    -0.002 A 
ATOM     13  C12 UNK     1      40.825  15.591  -2.679  1.00  0.00     0.017 A 
ATOM     14  C14 UNK     1      40.650  16.823  -3.309  1.00  0.00     0.037 A 
ATOM     15  C15 UNK     1      40.066  17.884  -2.617  1.00  0.00     0.065 A 
ATOM     16  C13 UNK     1      39.659  17.712  -1.294  1.00  0.00     0.037 A 
ATOM     17  C11 UNK     1      39.834  16.480  -0.663  1.00  0.00     0.017 A 
BRANCH  15  18
ATOM     18  O5  UNK     1      39.896  19.086  -3.231  1.00  0.00    -0.361 OA
ATOM     19  H10 UNK     1      40.409  19.759  -2.752  1.00  0.00     0.217 HD
ENDBRANCH  15  18
ENDBRANCH   5  12
BRANCH   8  20
ATOM     20  O2  UNK     1      41.395   9.416   1.048  1.00  0.00    -0.360 OA
ATOM     21  H8  UNK     1      40.859   9.171   0.277  1.00  0.00     0.217 HD
ENDBRANCH   8  20
BRANCH  10  22
ATOM     22  O4  UNK     1      39.894  11.872   4.826  1.00  0.00    -0.361 OA
ATOM     23  H9  UNK     1      39.026  12.299   4.932  1.00  0.00     0.217 HD
ENDBRANCH  10  22
TORSDOF 4
ENDMDL
MODEL 8
REMARK VINA RESULT:      -5.6     10.276     12.171
REMARK  4 active torsions:
REMARK  status: ('A' for Active; 'I' for Inactive)
REMARK    1  A    between atoms: O2_2  and  C7_12 
REMARK    2  A    between atoms: O4_4  and  C9_14 
REMARK    3  A    between atoms: O5_5  and  C15_20 
REMARK    4  A    between atoms: C3_8  and  C4_9 
ROOT
ATOM      1  O1  UNK     1      46.158  11.251  -7.886  1.00  0.00    -0.309 OA
ATOM      2  O3  UNK     1      47.918   7.771  -9.066  1.00  0.00    -0.287 OA
ATOM      3  C1  UNK     1      45.968   9.104  -9.007  1.00  0.00     0.081 A 
ATOM      4  C2  UNK     1      45.429  10.314  -8.575  1.00  0.00     0.095 A 
ATOM      5  C3  UNK     1      47.487  10.975  -7.601  1.00  0.00     0.090 A 
ATOM      6  C5  UNK     1      47.380   8.811  -8.715  1.00  0.00     0.190 A 
ATOM      7  C6  UNK     1      48.121   9.850  -7.969  1.00  0.00     0.094 A 
ATOM      8  C7  UNK     1      45.179   8.188  -9.705  1.00  0.00     0.085 A 
ATOM      9  C8  UNK     1      44.094  10.617  -8.841  1.00  0.00     0.075 A 
ATOM     10  C9  UNK     1      43.301   9.705  -9.538  1.00  0.00     0.071 A 
ATOM     11  C10 UNK     1      43.843   8.492  -9.969  1.00  0.00     0.074 A 
ENDROOT
BRANCH   5  12
ATOM     12  C4  UNK     1      48.177  12.050  -6.863  1.00  0.00    -0.002 A 
ATOM     13  C12 UNK     1      49.162  12.815  -7.493  1.00  0.00     0.017 A 
ATOM     14  C14 UNK     1      49.814  13.830  -6.795  1.00  0.00     0.037 A 
ATOM     15  C15 UNK     1      49.485  14.085  -5.463  1.00  0.00     0.065 A 
ATOM     16  C13 UNK     1      48.504  13.323  -4.830  1.00  0.00     0.037 A 
ATOM     17  C11 UNK     1      47.850  12.307  -5.528  1.00  0.00     0.017 A 
BRANCH  15  18
ATOM     18  O5  UNK     1      50.123  15.075  -4.782  1.00  0.00    -0.361 OA
ATOM     19  H10 UNK     1      49.966  15.921  -5.236  1.00  0.00     0.217 HD
ENDBRANCH  15  18
ENDBRANCH   5  12
BRANCH   8  20
ATOM     20  O2  UNK     1      45.658   6.993 -10.148  1.00  0.00    -0.360 OA
ATOM     21  H8  UNK     1      46.340   7.130 -10.825  1.00  0.00     0.217 HD
ENDBRANCH   8  20
BRANCH  10  22
ATOM     22  O4  UNK     1      41.997   9.998  -9.799  1.00  0.00    -0.361 OA
ATOM     23  H9  UNK     1      41.933  10.394 -10.685  1.00  0.00     0.217 HD
ENDBRANCH  10  22
TORSDOF 4
ENDMDL
MODEL 9
REMARK VINA RESULT:      -5.6     10.278     12.127
REMARK  4 active torsions:
REMARK  status: ('A' for Active; 'I' for Inactive)
REMARK    1  A    between atoms: O2_2  and  C7_12 
REMARK    2  A    between atoms: O4_4  and  C9_14 
REMARK    3  A    between atoms: O5_5  and  C15_20 
REMARK    4  A    between atoms: C3_8  and  C4_9 
ROOT
ATOM      1  O1  UNK     1      46.157  11.256  -7.884  1.00  0.00    -0.309 OA
ATOM      2  O3  UNK     1      47.908   7.767  -9.052  1.00  0.00    -0.287 OA
ATOM      3  C1  UNK     1      45.963   9.108  -9.002  1.00  0.00     0.081 A 
ATOM      4  C2  UNK     1      45.427  10.321  -8.574  1.00  0.00     0.095 A 
ATOM      5  C3  UNK     1      47.484  10.975  -7.594  1.00  0.00     0.090 A 
ATOM      6  C5  UNK     1      47.373   8.810  -8.705  1.00  0.00     0.190 A 
ATOM      7  C6  UNK     1      48.115   9.847  -7.958  1.00  0.00     0.094 A 
ATOM      8  C7  UNK     1      45.173   8.193  -9.702  1.00  0.00     0.085 A 
ATOM      9  C8  UNK     1      44.094  10.628  -8.845  1.00  0.00     0.075 A 
ATOM     10  C9  UNK     1      43.300   9.718  -9.543  1.00  0.00     0.071 A 
ATOM     11  C10 UNK     1      43.838   8.502  -9.971  1.00  0.00     0.074 A 
ENDROOT
BRANCH   5  12
ATOM     12  C4  UNK     1      48.176  12.049  -6.855  1.00  0.00    -0.002 A 
ATOM     13  C12 UNK     1      47.857  12.300  -5.519  1.00  0.00     0.017 A 
ATOM     14  C14 UNK     1      48.511  13.316  -4.822  1.00  0.00     0.037 A 
ATOM     15  C15 UNK     1      49.487  14.083  -5.458  1.00  0.00     0.065 A 
ATOM     16  C13 UNK     1      49.808  13.835  -6.792  1.00  0.00     0.037 A 
ATOM     17  C11 UNK     1      49.154  12.819  -7.490  1.00  0.00     0.017 A 
BRANCH  15  18
ATOM     18  O5  UNK     1      50.124  15.074  -4.777  1.00  0.00    -0.361 OA
ATOM     19  H10 UNK     1      50.500  14.703  -3.960  1.00  0.00     0.217 HD
ENDBRANCH  15  18
ENDBRANCH   5  12
BRANCH   8  20
ATOM     20  O2  UNK     1      45.649   6.996 -10.141  1.00  0.00    -0.360 OA
ATOM     21  H8  UNK     1      46.433   6.735  -9.633  1.00  0.00     0.217 HD
ENDBRANCH   8  20
BRANCH  10  22
ATOM     22  O4  UNK     1      41.998  10.015  -9.809  1.00  0.00    -0.361 OA
ATOM     23  H9  UNK     1      41.962  10.825 -10.347  1.00  0.00     0.217 HD
ENDBRANCH  10  22
TORSDOF 4
ENDMDL
