MODEL 1
REMARK VINA RESULT:      -6.1      0.000      0.000
REMARK  4 active torsions:
REMARK  status: ('A' for Active; 'I' for Inactive)
REMARK    1  A    between atoms: O2_2  and  C7_12 
REMARK    2  A    between atoms: O4_4  and  C9_14 
REMARK    3  A    between atoms: O5_5  and  C15_20 
REMARK    4  A    between atoms: C3_8  and  C4_9 
ROOT
ATOM      1  O1  UNK     1      45.034   1.878   7.537  1.00  0.00    -0.309 OA
ATOM      2  O3  UNK     1      46.970   0.280  10.746  1.00  0.00    -0.287 OA
ATOM      3  C1  UNK     1      47.119   1.483   8.717  1.00  0.00     0.081 A 
ATOM      4  C2  UNK     1      46.395   2.005   7.648  1.00  0.00     0.095 A 
ATOM      5  C3  UNK     1      44.352   1.191   8.530  1.00  0.00     0.090 A 
ATOM      6  C5  UNK     1      46.399   0.762   9.778  1.00  0.00     0.190 A 
ATOM      7  C6  UNK     1      44.935   0.649   9.611  1.00  0.00     0.094 A 
ATOM      8  C7  UNK     1      48.505   1.644   8.779  1.00  0.00     0.085 A 
ATOM      9  C8  UNK     1      47.054   2.695   6.630  1.00  0.00     0.075 A 
ATOM     10  C9  UNK     1      48.439   2.859   6.687  1.00  0.00     0.071 A 
ATOM     11  C10 UNK     1      49.163   2.333   7.759  1.00  0.00     0.074 A 
ENDROOT
BRANCH   5  12
ATOM     12  C4  UNK     1      42.893   1.117   8.315  1.00  0.00    -0.002 A 
ATOM     13  C12 UNK     1      42.238   2.120   7.597  1.00  0.00     0.017 A 
ATOM     14  C14 UNK     1      40.860   2.051   7.395  1.00  0.00     0.037 A 
ATOM     15  C15 UNK     1      40.132   0.978   7.910  1.00  0.00     0.065 A 
ATOM     16  C13 UNK     1      40.783  -0.024   8.629  1.00  0.00     0.037 A 
ATOM     17  C11 UNK     1      42.161   0.044   8.831  1.00  0.00     0.017 A 
BRANCH  15  18
ATOM     18  O5  UNK     1      38.787   0.912   7.714  1.00  0.00    -0.361 OA
ATOM     19  H10 UNK     1      38.590   1.174   6.798  1.00  0.00     0.217 HD
ENDBRANCH  15  18
ENDBRANCH   5  12
BRANCH   8  20
ATOM     20  O2  UNK     1      49.257   1.153   9.802  1.00  0.00    -0.360 OA
ATOM     21  H8  UNK     1      49.228   1.753  10.563  1.00  0.00     0.217 HD
ENDBRANCH   8  20
BRANCH  10  22
ATOM     22  O4  UNK     1      49.085   3.531   5.695  1.00  0.00    -0.361 OA
ATOM     23  H9  UNK     1      49.187   2.941   4.928  1.00  0.00     0.217 HD
ENDBRANCH  10  22
TORSDOF 4
ENDMDL
MODEL 2
REMARK VINA RESULT:      -6.0      1.723      7.052
REMARK  4 active torsions:
REMARK  status: ('A' for Active; 'I' for Inactive)
REMARK    1  A    between atoms: O2_2  and  C7_12 
REMARK    2  A    between atoms: O4_4  and  C9_14 
REMARK    3  A    between atoms: O5_5  and  C15_20 
REMARK    4  A    between atoms: C3_8  and  C4_9 
ROOT
ATOM      1  O1  UNK     1      42.682   1.190   7.931  1.00  0.00    -0.309 OA
ATOM      2  O3  UNK     1      41.373  -1.682  10.507  1.00  0.00    -0.287 OA
ATOM      3  C1  UNK     1      40.834  -0.097   8.839  1.00  0.00     0.081 A 
ATOM      4  C2  UNK     1      41.348   0.873   7.982  1.00  0.00     0.095 A 
ATOM      5  C3  UNK     1      43.553   0.521   8.777  1.00  0.00     0.090 A 
ATOM      6  C5  UNK     1      41.755  -0.817   9.731  1.00  0.00     0.190 A 
ATOM      7  C6  UNK     1      43.180  -0.437   9.641  1.00  0.00     0.094 A 
ATOM      8  C7  UNK     1      39.466  -0.379   8.848  1.00  0.00     0.085 A 
ATOM      9  C8  UNK     1      40.496   1.569   7.124  1.00  0.00     0.075 A 
ATOM     10  C9  UNK     1      39.129   1.291   7.129  1.00  0.00     0.071 A 
ATOM     11  C10 UNK     1      38.615   0.319   7.990  1.00  0.00     0.074 A 
ENDROOT
BRANCH   5  12
ATOM     12  C4  UNK     1      44.963   0.935   8.636  1.00  0.00    -0.002 A 
ATOM     13  C12 UNK     1      45.904   0.561   9.599  1.00  0.00     0.017 A 
ATOM     14  C14 UNK     1      47.235   0.954   9.465  1.00  0.00     0.037 A 
ATOM     15  C15 UNK     1      47.631   1.720   8.369  1.00  0.00     0.065 A 
ATOM     16  C13 UNK     1      46.694   2.095   7.407  1.00  0.00     0.037 A 
ATOM     17  C11 UNK     1      45.362   1.703   7.539  1.00  0.00     0.017 A 
BRANCH  15  18
ATOM     18  O5  UNK     1      48.930   2.103   8.241  1.00  0.00    -0.361 OA
ATOM     19  H10 UNK     1      48.971   2.891   7.671  1.00  0.00     0.217 HD
ENDBRANCH  15  18
ENDBRANCH   5  12
BRANCH   8  20
ATOM     20  O2  UNK     1      38.914  -1.318   9.666  1.00  0.00    -0.360 OA
ATOM     21  H8  UNK     1      38.998  -2.201   9.274  1.00  0.00     0.217 HD
ENDBRANCH   8  20
BRANCH  10  22
ATOM     22  O4  UNK     1      38.294   1.968   6.293  1.00  0.00    -0.361 OA
ATOM     23  H9  UNK     1      38.518   2.914   6.321  1.00  0.00     0.217 HD
ENDBRANCH  10  22
TORSDOF 4
ENDMDL
MODEL 3
REMARK VINA RESULT:      -6.0      1.718      6.990
REMARK  4 active torsions:
REMARK  status: ('A' for Active; 'I' for Inactive)
REMARK    1  A    between atoms: O2_2  and  C7_12 
REMARK    2  A    between atoms: O4_4  and  C9_14 
REMARK    3  A    between atoms: O5_5  and  C15_20 
REMARK    4  A    between atoms: C3_8  and  C4_9 
ROOT
ATOM      1  O1  UNK     1      42.681   1.170   7.950  1.00  0.00    -0.309 OA
ATOM      2  O3  UNK     1      41.339  -1.723  10.485  1.00  0.00    -0.287 OA
ATOM      3  C1  UNK     1      40.819  -0.117   8.832  1.00  0.00     0.081 A 
ATOM      4  C2  UNK     1      41.345   0.860   7.989  1.00  0.00     0.095 A 
ATOM      5  C3  UNK     1      43.543   0.486   8.794  1.00  0.00     0.090 A 
ATOM      6  C5  UNK     1      41.732  -0.852   9.722  1.00  0.00     0.190 A 
ATOM      7  C6  UNK     1      43.159  -0.480   9.644  1.00  0.00     0.094 A 
ATOM      8  C7  UNK     1      39.450  -0.392   8.829  1.00  0.00     0.085 A 
ATOM      9  C8  UNK     1      40.502   1.570   7.134  1.00  0.00     0.075 A 
ATOM     10  C9  UNK     1      39.133   1.300   7.127  1.00  0.00     0.071 A 
ATOM     11  C10 UNK     1      38.608   0.321   7.974  1.00  0.00     0.074 A 
ENDROOT
BRANCH   5  12
ATOM     12  C4  UNK     1      44.956   0.893   8.666  1.00  0.00    -0.002 A 
ATOM     13  C12 UNK     1      45.365   1.678   7.586  1.00  0.00     0.017 A 
ATOM     14  C14 UNK     1      46.701   2.062   7.466  1.00  0.00     0.037 A 
ATOM     15  C15 UNK     1      47.631   1.663   8.426  1.00  0.00     0.065 A 
ATOM     16  C13 UNK     1      47.226   0.879   9.505  1.00  0.00     0.037 A 
ATOM     17  C11 UNK     1      45.890   0.494   9.626  1.00  0.00     0.017 A 
BRANCH  15  18
ATOM     18  O5  UNK     1      48.934   2.037   8.307  1.00  0.00    -0.361 OA
ATOM     19  H10 UNK     1      49.048   2.913   8.716  1.00  0.00     0.217 HD
ENDBRANCH  15  18
ENDBRANCH   5  12
BRANCH   8  20
ATOM     20  O2  UNK     1      38.888  -1.336   9.633  1.00  0.00    -0.360 OA
ATOM     21  H8  UNK     1      38.324  -1.931   9.115  1.00  0.00     0.217 HD
ENDBRANCH   8  20
BRANCH  10  22
ATOM     22  O4  UNK     1      38.307   1.991   6.294  1.00  0.00    -0.361 OA
ATOM     23  H9  UNK     1      38.092   1.431   5.528  1.00  0.00     0.217 HD
ENDBRANCH  10  22
TORSDOF 4
ENDMDL
MODEL 4
REMARK VINA RESULT:      -5.9      1.907      7.336
REMARK  4 active torsions:
REMARK  status: ('A' for Active; 'I' for Inactive)
REMARK    1  A    between atoms: O2_2  and  C7_12 
REMARK    2  A    between atoms: O4_4  and  C9_14 
REMARK    3  A    between atoms: O5_5  and  C15_20 
REMARK    4  A    between atoms: C3_8  and  C4_9 
ROOT
ATOM      1  O1  UNK     1      43.507  -0.115   8.978  1.00  0.00    -0.309 OA
ATOM      2  O3  UNK     1      40.425   2.026   7.392  1.00  0.00    -0.287 OA
ATOM      3  C1  UNK     1      41.118   0.127   8.615  1.00  0.00     0.081 A 
ATOM      4  C2  UNK     1      42.217  -0.555   9.133  1.00  0.00     0.095 A 
ATOM      5  C3  UNK     1      43.724   1.056   8.268  1.00  0.00     0.090 A 
ATOM      6  C5  UNK     1      41.343   1.375   7.870  1.00  0.00     0.190 A 
ATOM      7  C6  UNK     1      42.749   1.805   7.729  1.00  0.00     0.094 A 
ATOM      8  C7  UNK     1      39.825  -0.368   8.804  1.00  0.00     0.085 A 
ATOM      9  C8  UNK     1      42.030  -1.740   9.845  1.00  0.00     0.075 A 
ATOM     10  C9  UNK     1      40.741  -2.239  10.037  1.00  0.00     0.071 A 
ATOM     11  C10 UNK     1      39.641  -1.554   9.517  1.00  0.00     0.074 A 
ENDROOT
BRANCH   5  12
ATOM     12  C4  UNK     1      45.146   1.441   8.167  1.00  0.00    -0.002 A 
ATOM     13  C12 UNK     1      46.058   1.019   9.137  1.00  0.00     0.017 A 
ATOM     14  C14 UNK     1      47.401   1.384   9.041  1.00  0.00     0.037 A 
ATOM     15  C15 UNK     1      47.836   2.171   7.975  1.00  0.00     0.065 A 
ATOM     16  C13 UNK     1      46.928   2.595   7.006  1.00  0.00     0.037 A 
ATOM     17  C11 UNK     1      45.585   2.231   7.101  1.00  0.00     0.017 A 
BRANCH  15  18
ATOM     18  O5  UNK     1      49.146   2.527   7.883  1.00  0.00    -0.361 OA
ATOM     19  H10 UNK     1      49.587   2.327   8.727  1.00  0.00     0.217 HD
ENDBRANCH  15  18
ENDBRANCH   5  12
BRANCH   8  20
ATOM     20  O2  UNK     1      38.719   0.261   8.319  1.00  0.00    -0.360 OA
ATOM     21  H8  UNK     1      38.636   0.113   7.365  1.00  0.00     0.217 HD
ENDBRANCH   8  20
BRANCH  10  22
ATOM     22  O4  UNK     1      40.556  -3.395  10.731  1.00  0.00    -0.361 OA
ATOM     23  H9  UNK     1      40.883  -4.140  10.198  1.00  0.00     0.217 HD
ENDBRANCH  10  22
TORSDOF 4
ENDMDL
MODEL 5
REMARK VINA RESULT:      -5.9      2.021      7.827
REMARK  4 active torsions:
REMARK  status: ('A' for Active; 'I' for Inactive)
REMARK    1  A    between atoms: O2_2  and  C7_12 
REMARK    2  A    between atoms: O4_4  and  C9_14 
REMARK    3  A    between atoms: O5_5  and  C15_20 
REMARK    4  A    between atoms: C3_8  and  C4_9 
ROOT
ATOM      1  O1  UNK     1      41.899  -0.461   8.470  1.00  0.00    -0.309 OA
ATOM      2  O3  UNK     1      39.223   2.293   7.108  1.00  0.00    -0.287 OA
ATOM      3  C1  UNK     1      39.602   0.106   7.918  1.00  0.00     0.081 A 
ATOM      4  C2  UNK     1      40.569  -0.787   8.376  1.00  0.00     0.095 A 
ATOM      5  C3  UNK     1      42.296   0.810   8.083  1.00  0.00     0.090 A 
ATOM      6  C5  UNK     1      40.018   1.459   7.516  1.00  0.00     0.190 A 
ATOM      7  C6  UNK     1      41.460   1.759   7.633  1.00  0.00     0.094 A 
ATOM      8  C7  UNK     1      38.262  -0.280   7.844  1.00  0.00     0.085 A 
ATOM      9  C8  UNK     1      40.200  -2.075   8.765  1.00  0.00     0.075 A 
ATOM     10  C9  UNK     1      38.863  -2.465   8.693  1.00  0.00     0.071 A 
ATOM     11  C10 UNK     1      37.895  -1.569   8.233  1.00  0.00     0.074 A 
ENDROOT
BRANCH   5  12
ATOM     12  C4  UNK     1      43.744   1.056   8.230  1.00  0.00    -0.002 A 
ATOM     13  C12 UNK     1      44.431   1.800   7.268  1.00  0.00     0.017 A 
ATOM     14  C14 UNK     1      45.799   2.031   7.407  1.00  0.00     0.037 A 
ATOM     15  C15 UNK     1      46.486   1.519   8.508  1.00  0.00     0.065 A 
ATOM     16  C13 UNK     1      45.803   0.775   9.470  1.00  0.00     0.037 A 
ATOM     17  C11 UNK     1      44.435   0.543   9.332  1.00  0.00     0.017 A 
BRANCH  15  18
ATOM     18  O5  UNK     1      47.821   1.744   8.642  1.00  0.00    -0.361 OA
ATOM     19  H10 UNK     1      48.188   1.986   7.774  1.00  0.00     0.217 HD
ENDBRANCH  15  18
ENDBRANCH   5  12
BRANCH   8  20
ATOM     20  O2  UNK     1      37.280   0.555   7.404  1.00  0.00    -0.360 OA
ATOM     21  H8  UNK     1      37.302   1.393   7.892  1.00  0.00     0.217 HD
ENDBRANCH   8  20
BRANCH  10  22
ATOM     22  O4  UNK     1      38.500  -3.722   9.072  1.00  0.00    -0.361 OA
ATOM     23  H9  UNK     1      37.793  -3.659   9.737  1.00  0.00     0.217 HD
ENDBRANCH  10  22
TORSDOF 4
ENDMDL
MODEL 6
REMARK VINA RESULT:      -5.7      3.920      6.809
REMARK  4 active torsions:
REMARK  status: ('A' for Active; 'I' for Inactive)
REMARK    1  A    between atoms: O2_2  and  C7_12 
REMARK    2  A    between atoms: O4_4  and  C9_14 
REMARK    3  A    between atoms: O5_5  and  C15_20 
REMARK    4  A    between atoms: C3_8  and  C4_9 
ROOT
ATOM      1  O1  UNK     1      40.982   2.115   8.682  1.00  0.00    -0.309 OA
ATOM      2  O3  UNK     1      43.459  -0.967   9.663  1.00  0.00    -0.287 OA
ATOM      3  C1  UNK     1      41.377  -0.279   8.784  1.00  0.00     0.081 A 
ATOM      4  C2  UNK     1      40.581   0.820   8.471  1.00  0.00     0.095 A 
ATOM      5  C3  UNK     1      42.232   2.336   9.241  1.00  0.00     0.090 A 
ATOM      6  C5  UNK     1      42.708  -0.049   9.367  1.00  0.00     0.190 A 
ATOM      7  C6  UNK     1      43.092   1.361   9.578  1.00  0.00     0.094 A 
ATOM      8  C7  UNK     1      40.917  -1.576   8.545  1.00  0.00     0.085 A 
ATOM      9  C8  UNK     1      39.316   0.629   7.915  1.00  0.00     0.075 A 
ATOM     10  C9  UNK     1      38.851  -0.664   7.674  1.00  0.00     0.071 A 
ATOM     11  C10 UNK     1      39.650  -1.765   7.990  1.00  0.00     0.074 A 
ENDROOT
BRANCH   5  12
ATOM     12  C4  UNK     1      42.565   3.763   9.420  1.00  0.00    -0.002 A 
ATOM     13  C12 UNK     1      41.602   4.653   9.899  1.00  0.00     0.017 A 
ATOM     14  C14 UNK     1      41.918   6.002  10.068  1.00  0.00     0.037 A 
ATOM     15  C15 UNK     1      43.197   6.464   9.758  1.00  0.00     0.065 A 
ATOM     16  C13 UNK     1      44.160   5.577   9.278  1.00  0.00     0.037 A 
ATOM     17  C11 UNK     1      43.846   4.228   9.110  1.00  0.00     0.017 A 
BRANCH  15  18
ATOM     18  O5  UNK     1      43.503   7.779   9.921  1.00  0.00    -0.361 OA
ATOM     19  H10 UNK     1      44.430   7.853  10.207  1.00  0.00     0.217 HD
ENDBRANCH  15  18
ENDBRANCH   5  12
BRANCH   8  20
ATOM     20  O2  UNK     1      41.657  -2.683   8.833  1.00  0.00    -0.360 OA
ATOM     21  H8  UNK     1      42.429  -2.736   8.250  1.00  0.00     0.217 HD
ENDBRANCH   8  20
BRANCH  10  22
ATOM     22  O4  UNK     1      37.617  -0.854   7.132  1.00  0.00    -0.361 OA
ATOM     23  H9  UNK     1      37.097  -1.427   7.722  1.00  0.00     0.217 HD
ENDBRANCH  10  22
TORSDOF 4
ENDMDL
MODEL 7
REMARK VINA RESULT:      -5.7      3.843      7.236
REMARK  4 active torsions:
REMARK  status: ('A' for Active; 'I' for Inactive)
REMARK    1  A    between atoms: O2_2  and  C7_12 
REMARK    2  A    between atoms: O4_4  and  C9_14 
REMARK    3  A    between atoms: O5_5  and  C15_20 
REMARK    4  A    between atoms: C3_8  and  C4_9 
ROOT
ATOM      1  O1  UNK     1      42.115   1.080   9.316  1.00  0.00    -0.309 OA
ATOM      2  O3  UNK     1      38.964   1.238   6.737  1.00  0.00    -0.287 OA
ATOM      3  C1  UNK     1      40.342  -0.082   8.130  1.00  0.00     0.081 A 
ATOM      4  C2  UNK     1      41.427  -0.066   9.004  1.00  0.00     0.095 A 
ATOM      5  C3  UNK     1      41.715   2.271   8.727  1.00  0.00     0.090 A 
ATOM      6  C5  UNK     1      39.909   1.180   7.511  1.00  0.00     0.190 A 
ATOM      7  C6  UNK     1      40.683   2.384   7.876  1.00  0.00     0.094 A 
ATOM      8  C7  UNK     1      39.678  -1.279   7.850  1.00  0.00     0.085 A 
ATOM      9  C8  UNK     1      41.856  -1.249   9.606  1.00  0.00     0.075 A 
ATOM     10  C9  UNK     1      41.197  -2.447   9.329  1.00  0.00     0.071 A 
ATOM     11  C10 UNK     1      40.110  -2.462   8.452  1.00  0.00     0.074 A 
ENDROOT
BRANCH   5  12
ATOM     12  C4  UNK     1      42.518   3.440   9.135  1.00  0.00    -0.002 A 
ATOM     13  C12 UNK     1      41.953   4.434   9.937  1.00  0.00     0.017 A 
ATOM     14  C14 UNK     1      42.712   5.539  10.322  1.00  0.00     0.037 A 
ATOM     15  C15 UNK     1      44.039   5.654   9.906  1.00  0.00     0.065 A 
ATOM     16  C13 UNK     1      44.606   4.663   9.105  1.00  0.00     0.037 A 
ATOM     17  C11 UNK     1      43.848   3.558   8.720  1.00  0.00     0.017 A 
BRANCH  15  18
ATOM     18  O5  UNK     1      44.779   6.733  10.281  1.00  0.00    -0.361 OA
ATOM     19  H10 UNK     1      45.651   6.426  10.584  1.00  0.00     0.217 HD
ENDBRANCH  15  18
ENDBRANCH   5  12
BRANCH   8  20
ATOM     20  O2  UNK     1      38.614  -1.348   7.004  1.00  0.00    -0.360 OA
ATOM     21  H8  UNK     1      38.295  -0.458   6.785  1.00  0.00     0.217 HD
ENDBRANCH   8  20
BRANCH  10  22
ATOM     22  O4  UNK     1      41.614  -3.603   9.914  1.00  0.00    -0.361 OA
ATOM     23  H9  UNK     1      42.577  -3.563  10.043  1.00  0.00     0.217 HD
ENDBRANCH  10  22
TORSDOF 4
ENDMDL
MODEL 8
REMARK VINA RESULT:      -5.7      2.070      2.818
REMARK  4 active torsions:
REMARK  status: ('A' for Active; 'I' for Inactive)
REMARK    1  A    between atoms: O2_2  and  C7_12 
REMARK    2  A    between atoms: O4_4  and  C9_14 
REMARK    3  A    between atoms: O5_5  and  C15_20 
REMARK    4  A    between atoms: C3_8  and  C4_9 
ROOT
ATOM      1  O1  UNK     1      43.438   1.747   7.577  1.00  0.00    -0.309 OA
ATOM      2  O3  UNK     1      43.732   4.942  10.088  1.00  0.00    -0.287 OA
ATOM      3  C1  UNK     1      44.821   3.457   8.607  1.00  0.00     0.081 A 
ATOM      4  C2  UNK     1      44.650   2.362   7.763  1.00  0.00     0.095 A 
ATOM      5  C3  UNK     1      42.338   2.233   8.268  1.00  0.00     0.090 A 
ATOM      6  C5  UNK     1      43.655   3.983   9.333  1.00  0.00     0.190 A 
ATOM      7  C6  UNK     1      42.374   3.284   9.102  1.00  0.00     0.094 A 
ATOM      8  C7  UNK     1      46.079   4.045   8.756  1.00  0.00     0.085 A 
ATOM      9  C8  UNK     1      45.739   1.846   7.060  1.00  0.00     0.075 A 
ATOM     10  C9  UNK     1      46.998   2.429   7.206  1.00  0.00     0.071 A 
ATOM     11  C10 UNK     1      47.168   3.527   8.053  1.00  0.00     0.074 A 
ENDROOT
BRANCH   5  12
ATOM     12  C4  UNK     1      41.086   1.502   7.991  1.00  0.00    -0.002 A 
ATOM     13  C12 UNK     1      40.034   2.138   7.326  1.00  0.00     0.017 A 
ATOM     14  C14 UNK     1      38.851   1.447   7.066  1.00  0.00     0.037 A 
ATOM     15  C15 UNK     1      38.715   0.119   7.469  1.00  0.00     0.065 A 
ATOM     16  C13 UNK     1      39.762  -0.518   8.134  1.00  0.00     0.037 A 
ATOM     17  C11 UNK     1      40.946   0.171   8.395  1.00  0.00     0.017 A 
BRANCH  15  18
ATOM     18  O5  UNK     1      37.560  -0.554   7.216  1.00  0.00    -0.361 OA
ATOM     19  H10 UNK     1      36.995  -0.521   8.008  1.00  0.00     0.217 HD
ENDBRANCH  15  18
ENDBRANCH   5  12
BRANCH   8  20
ATOM     20  O2  UNK     1      46.298   5.116   9.568  1.00  0.00    -0.360 OA
ATOM     21  H8  UNK     1      45.745   5.866   9.298  1.00  0.00     0.217 HD
ENDBRANCH   8  20
BRANCH  10  22
ATOM     22  O4  UNK     1      48.064   1.928   6.522  1.00  0.00    -0.361 OA
ATOM     23  H9  UNK     1      48.561   2.666   6.128  1.00  0.00     0.217 HD
ENDBRANCH  10  22
TORSDOF 4
ENDMDL
MODEL 9
REMARK VINA RESULT:      -5.7      3.914      6.804
REMARK  4 active torsions:
REMARK  status: ('A' for Active; 'I' for Inactive)
REMARK    1  A    between atoms: O2_2  and  C7_12 
REMARK    2  A    between atoms: O4_4  and  C9_14 
REMARK    3  A    between atoms: O5_5  and  C15_20 
REMARK    4  A    between atoms: C3_8  and  C4_9 
ROOT
ATOM      1  O1  UNK     1      40.989   2.117   8.693  1.00  0.00    -0.309 OA
ATOM      2  O3  UNK     1      43.474  -0.965   9.656  1.00  0.00    -0.287 OA
ATOM      3  C1  UNK     1      41.385  -0.278   8.790  1.00  0.00     0.081 A 
ATOM      4  C2  UNK     1      40.587   0.821   8.483  1.00  0.00     0.095 A 
ATOM      5  C3  UNK     1      42.242   2.338   9.244  1.00  0.00     0.090 A 
ATOM      6  C5  UNK     1      42.720  -0.047   9.365  1.00  0.00     0.190 A 
ATOM      7  C6  UNK     1      43.105   1.363   9.575  1.00  0.00     0.094 A 
ATOM      8  C7  UNK     1      40.925  -1.575   8.553  1.00  0.00     0.085 A 
ATOM      9  C8  UNK     1      39.318   0.631   7.935  1.00  0.00     0.075 A 
ATOM     10  C9  UNK     1      38.853  -0.663   7.697  1.00  0.00     0.071 A 
ATOM     11  C10 UNK     1      39.655  -1.764   8.006  1.00  0.00     0.074 A 
ENDROOT
BRANCH   5  12
ATOM     12  C4  UNK     1      42.575   3.765   9.422  1.00  0.00    -0.002 A 
ATOM     13  C12 UNK     1      43.857   4.230   9.119  1.00  0.00     0.017 A 
ATOM     14  C14 UNK     1      44.171   5.578   9.288  1.00  0.00     0.037 A 
ATOM     15  C15 UNK     1      43.205   6.466   9.761  1.00  0.00     0.065 A 
ATOM     16  C13 UNK     1      41.924   6.005  10.066  1.00  0.00     0.037 A 
ATOM     17  C11 UNK     1      41.609   4.657   9.896  1.00  0.00     0.017 A 
BRANCH  15  18
ATOM     18  O5  UNK     1      43.513   7.781   9.927  1.00  0.00    -0.361 OA
ATOM     19  H10 UNK     1      44.335   7.975   9.445  1.00  0.00     0.217 HD
ENDBRANCH  15  18
ENDBRANCH   5  12
BRANCH   8  20
ATOM     20  O2  UNK     1      41.667  -2.681   8.836  1.00  0.00    -0.360 OA
ATOM     21  H8  UNK     1      42.058  -2.611   9.720  1.00  0.00     0.217 HD
ENDBRANCH   8  20
BRANCH  10  22
ATOM     22  O4  UNK     1      37.615  -0.853   7.162  1.00  0.00    -0.361 OA
ATOM     23  H9  UNK     1      37.383  -1.796   7.230  1.00  0.00     0.217 HD
ENDBRANCH  10  22
TORSDOF 4
ENDMDL
MODEL 10
REMARK VINA RESULT:      -5.7      2.387      7.438
REMARK  4 active torsions:
REMARK  status: ('A' for Active; 'I' for Inactive)
REMARK    1  A    between atoms: O2_2  and  C7_12 
REMARK    2  A    between atoms: O4_4  and  C9_14 
REMARK    3  A    between atoms: O5_5  and  C15_20 
REMARK    4  A    between atoms: C3_8  and  C4_9 
ROOT
ATOM      1  O1  UNK     1      41.596   0.388   8.213  1.00  0.00    -0.309 OA
ATOM      2  O3  UNK     1      41.547  -2.720  10.846  1.00  0.00    -0.287 OA
ATOM      3  C1  UNK     1      40.329  -1.322   9.382  1.00  0.00     0.081 A 
ATOM      4  C2  UNK     1      40.416  -0.254   8.491  1.00  0.00     0.095 A 
ATOM      5  C3  UNK     1      42.749  -0.041   8.853  1.00  0.00     0.090 A 
ATOM      6  C5  UNK     1      41.551  -1.787  10.055  1.00  0.00     0.190 A 
ATOM      7  C6  UNK     1      42.794  -1.062   9.724  1.00  0.00     0.094 A 
ATOM      8  C7  UNK     1      39.100  -1.939   9.626  1.00  0.00     0.085 A 
ATOM      9  C8  UNK     1      39.273   0.205   7.838  1.00  0.00     0.075 A 
ATOM     10  C9  UNK     1      38.043  -0.408   8.079  1.00  0.00     0.071 A 
ATOM     11  C10 UNK     1      37.956  -1.478   8.972  1.00  0.00     0.074 A 
ENDROOT
BRANCH   5  12
ATOM     12  C4  UNK     1      43.960   0.714   8.477  1.00  0.00    -0.002 A 
ATOM     13  C12 UNK     1      45.087   0.691   9.302  1.00  0.00     0.017 A 
ATOM     14  C14 UNK     1      46.231   1.405   8.946  1.00  0.00     0.037 A 
ATOM     15  C15 UNK     1      46.252   2.146   7.765  1.00  0.00     0.065 A 
ATOM     16  C13 UNK     1      45.129   2.172   6.939  1.00  0.00     0.037 A 
ATOM     17  C11 UNK     1      43.984   1.458   7.294  1.00  0.00     0.017 A 
BRANCH  15  18
ATOM     18  O5  UNK     1      47.368   2.843   7.419  1.00  0.00    -0.361 OA
ATOM     19  H10 UNK     1      47.858   3.074   8.227  1.00  0.00     0.217 HD
ENDBRANCH  15  18
ENDBRANCH   5  12
BRANCH   8  20
ATOM     20  O2  UNK     1      38.962  -2.986  10.486  1.00  0.00    -0.360 OA
ATOM     21  H8  UNK     1      39.643  -2.951  11.176  1.00  0.00     0.217 HD
ENDBRANCH   8  20
BRANCH  10  22
ATOM     22  O4  UNK     1      36.924   0.038   7.443  1.00  0.00    -0.361 OA
ATOM     23  H9  UNK     1      37.190   0.574   6.675  1.00  0.00     0.217 HD
ENDBRANCH  10  22
TORSDOF 4
ENDMDL
MODEL 11
REMARK VINA RESULT:      -5.7      8.044     11.140
REMARK  4 active torsions:
REMARK  status: ('A' for Active; 'I' for Inactive)
REMARK    1  A    between atoms: O2_2  and  C7_12 
REMARK    2  A    between atoms: O4_4  and  C9_14 
REMARK    3  A    between atoms: O5_5  and  C15_20 
REMARK    4  A    between atoms: C3_8  and  C4_9 
ROOT
ATOM      1  O1  UNK     1      37.931  -4.955   5.669  1.00  0.00    -0.309 OA
ATOM      2  O3  UNK     1      37.341  -6.154   9.517  1.00  0.00    -0.287 OA
ATOM      3  C1  UNK     1      37.844  -4.389   8.029  1.00  0.00     0.081 A 
ATOM      4  C2  UNK     1      38.033  -4.046   6.692  1.00  0.00     0.095 A 
ATOM      5  C3  UNK     1      37.636  -6.273   5.983  1.00  0.00     0.090 A 
ATOM      6  C5  UNK     1      37.521  -5.784   8.366  1.00  0.00     0.190 A 
ATOM      7  C6  UNK     1      37.426  -6.724   7.230  1.00  0.00     0.094 A 
ATOM      8  C7  UNK     1      37.959  -3.422   9.030  1.00  0.00     0.085 A 
ATOM      9  C8  UNK     1      38.338  -2.730   6.346  1.00  0.00     0.075 A 
ATOM     10  C9  UNK     1      38.454  -1.760   7.342  1.00  0.00     0.071 A 
ATOM     11  C10 UNK     1      38.265  -2.105   8.682  1.00  0.00     0.074 A 
ENDROOT
BRANCH   5  12
ATOM     12  C4  UNK     1      37.545  -7.163   4.809  1.00  0.00    -0.002 A 
ATOM     13  C12 UNK     1      38.533  -8.122   4.577  1.00  0.00     0.017 A 
ATOM     14  C14 UNK     1      38.447  -8.963   3.467  1.00  0.00     0.037 A 
ATOM     15  C15 UNK     1      37.373  -8.846   2.585  1.00  0.00     0.065 A 
ATOM     16  C13 UNK     1      36.385  -7.888   2.813  1.00  0.00     0.037 A 
ATOM     17  C11 UNK     1      36.470  -7.048   3.923  1.00  0.00     0.017 A 
BRANCH  15  18
ATOM     18  O5  UNK     1      37.290  -9.665   1.502  1.00  0.00    -0.361 OA
ATOM     19  H10 UNK     1      37.658 -10.535   1.736  1.00  0.00     0.217 HD
ENDBRANCH  15  18
ENDBRANCH   5  12
BRANCH   8  20
ATOM     20  O2  UNK     1      37.784  -3.706  10.350  1.00  0.00    -0.360 OA
ATOM     21  H8  UNK     1      37.117  -4.402  10.462  1.00  0.00     0.217 HD
ENDBRANCH   8  20
BRANCH  10  22
ATOM     22  O4  UNK     1      38.751  -0.474   7.007  1.00  0.00    -0.361 OA
ATOM     23  H9  UNK     1      38.038  -0.120   6.448  1.00  0.00     0.217 HD
ENDBRANCH  10  22
TORSDOF 4
ENDMDL
MODEL 12
REMARK VINA RESULT:      -5.7      2.875      6.767
REMARK  4 active torsions:
REMARK  status: ('A' for Active; 'I' for Inactive)
REMARK    1  A    between atoms: O2_2  and  C7_12 
REMARK    2  A    between atoms: O4_4  and  C9_14 
REMARK    3  A    between atoms: O5_5  and  C15_20 
REMARK    4  A    between atoms: C3_8  and  C4_9 
ROOT
ATOM      1  O1  UNK     1      42.302   2.799   8.129  1.00  0.00    -0.309 OA
ATOM      2  O3  UNK     1      43.044  -0.971   9.486  1.00  0.00    -0.287 OA
ATOM      3  C1  UNK     1      41.574   0.492   8.353  1.00  0.00     0.081 A 
ATOM      4  C2  UNK     1      41.384   1.801   7.916  1.00  0.00     0.095 A 
ATOM      5  C3  UNK     1      43.465   2.489   8.819  1.00  0.00     0.090 A 
ATOM      6  C5  UNK     1      42.811   0.158   9.076  1.00  0.00     0.190 A 
ATOM      7  C6  UNK     1      43.765   1.266   9.283  1.00  0.00     0.094 A 
ATOM      8  C7  UNK     1      40.606  -0.483   8.106  1.00  0.00     0.085 A 
ATOM      9  C8  UNK     1      40.222   2.145   7.226  1.00  0.00     0.075 A 
ATOM     10  C9  UNK     1      39.251   1.174   6.977  1.00  0.00     0.071 A 
ATOM     11  C10 UNK     1      39.442  -0.138   7.417  1.00  0.00     0.074 A 
ENDROOT
BRANCH   5  12
ATOM     12  C4  UNK     1      44.383   3.632   8.988  1.00  0.00    -0.002 A 
ATOM     13  C12 UNK     1      43.878   4.903   9.274  1.00  0.00     0.017 A 
ATOM     14  C14 UNK     1      44.747   5.982   9.433  1.00  0.00     0.037 A 
ATOM     15  C15 UNK     1      46.124   5.796   9.307  1.00  0.00     0.065 A 
ATOM     16  C13 UNK     1      46.631   4.529   9.021  1.00  0.00     0.037 A 
ATOM     17  C11 UNK     1      45.763   3.448   8.862  1.00  0.00     0.017 A 
BRANCH  15  18
ATOM     18  O5  UNK     1      46.970   6.849   9.462  1.00  0.00    -0.361 OA
ATOM     19  H10 UNK     1      47.868   6.511   9.626  1.00  0.00     0.217 HD
ENDBRANCH  15  18
ENDBRANCH   5  12
BRANCH   8  20
ATOM     20  O2  UNK     1      40.744  -1.776   8.512  1.00  0.00    -0.360 OA
ATOM     21  H8  UNK     1      41.140  -2.312   7.808  1.00  0.00     0.217 HD
ENDBRANCH   8  20
BRANCH  10  22
ATOM     22  O4  UNK     1      38.115   1.505   6.304  1.00  0.00    -0.361 OA
ATOM     23  H9  UNK     1      37.412   0.876   6.541  1.00  0.00     0.217 HD
ENDBRANCH  10  22
TORSDOF 4
ENDMDL
MODEL 13
REMARK VINA RESULT:      -5.6      6.240      9.719
REMARK  4 active torsions:
REMARK  status: ('A' for Active; 'I' for Inactive)
REMARK    1  A    between atoms: O2_2  and  C7_12 
REMARK    2  A    between atoms: O4_4  and  C9_14 
REMARK    3  A    between atoms: O5_5  and  C15_20 
REMARK    4  A    between atoms: C3_8  and  C4_9 
ROOT
ATOM      1  O1  UNK     1      38.347  -0.872   7.651  1.00  0.00    -0.309 OA
ATOM      2  O3  UNK     1      34.433  -1.484   8.603  1.00  0.00    -0.287 OA
ATOM      3  C1  UNK     1      36.366  -2.269   7.493  1.00  0.00     0.081 A 
ATOM      4  C2  UNK     1      37.702  -1.998   7.206  1.00  0.00     0.095 A 
ATOM      5  C3  UNK     1      37.633   0.040   8.414  1.00  0.00     0.090 A 
ATOM      6  C5  UNK     1      35.607  -1.309   8.311  1.00  0.00     0.190 A 
ATOM      7  C6  UNK     1      36.345  -0.112   8.763  1.00  0.00     0.094 A 
ATOM      8  C7  UNK     1      35.761  -3.432   7.014  1.00  0.00     0.085 A 
ATOM      9  C8  UNK     1      38.444  -2.893   6.435  1.00  0.00     0.075 A 
ATOM     10  C9  UNK     1      37.845  -4.057   5.953  1.00  0.00     0.071 A 
ATOM     11  C10 UNK     1      36.505  -4.326   6.242  1.00  0.00     0.074 A 
ENDROOT
BRANCH   5  12
ATOM     12  C4  UNK     1      38.422   1.210   8.844  1.00  0.00    -0.002 A 
ATOM     13  C12 UNK     1      38.251   1.740  10.125  1.00  0.00     0.017 A 
ATOM     14  C14 UNK     1      38.997   2.846  10.531  1.00  0.00     0.037 A 
ATOM     15  C15 UNK     1      39.917   3.427   9.658  1.00  0.00     0.065 A 
ATOM     16  C13 UNK     1      40.090   2.901   8.378  1.00  0.00     0.037 A 
ATOM     17  C11 UNK     1      39.345   1.794   7.971  1.00  0.00     0.017 A 
BRANCH  15  18
ATOM     18  O5  UNK     1      40.644   4.506  10.054  1.00  0.00    -0.361 OA
ATOM     19  H10 UNK     1      40.850   4.416  11.001  1.00  0.00     0.217 HD
ENDBRANCH  15  18
ENDBRANCH   5  12
BRANCH   8  20
ATOM     20  O2  UNK     1      34.459  -3.742   7.267  1.00  0.00    -0.360 OA
ATOM     21  H8  UNK     1      33.935  -2.935   7.386  1.00  0.00     0.217 HD
ENDBRANCH   8  20
BRANCH  10  22
ATOM     22  O4  UNK     1      38.566  -4.933   5.200  1.00  0.00    -0.361 OA
ATOM     23  H9  UNK     1      38.341  -5.840   5.469  1.00  0.00     0.217 HD
ENDBRANCH  10  22
TORSDOF 4
ENDMDL
MODEL 14
REMARK VINA RESULT:      -5.6      6.884     10.682
REMARK  4 active torsions:
REMARK  status: ('A' for Active; 'I' for Inactive)
REMARK    1  A    between atoms: O2_2  and  C7_12 
REMARK    2  A    between atoms: O4_4  and  C9_14 
REMARK    3  A    between atoms: O5_5  and  C15_20 
REMARK    4  A    between atoms: C3_8  and  C4_9 
ROOT
ATOM      1  O1  UNK     1      38.517  -4.422   5.962  1.00  0.00    -0.309 OA
ATOM      2  O3  UNK     1      34.981  -2.591   6.822  1.00  0.00    -0.287 OA
ATOM      3  C1  UNK     1      37.338  -2.558   6.980  1.00  0.00     0.081 A 
ATOM      4  C2  UNK     1      38.510  -3.236   6.652  1.00  0.00     0.095 A 
ATOM      5  C3  UNK     1      37.302  -4.972   5.584  1.00  0.00     0.090 A 
ATOM      6  C5  UNK     1      36.047  -3.133   6.571  1.00  0.00     0.190 A 
ATOM      7  C6  UNK     1      36.107  -4.412   5.834  1.00  0.00     0.094 A 
ATOM      8  C7  UNK     1      37.391  -1.352   7.682  1.00  0.00     0.085 A 
ATOM      9  C8  UNK     1      39.747  -2.711   7.026  1.00  0.00     0.075 A 
ATOM     10  C9  UNK     1      39.806  -1.507   7.728  1.00  0.00     0.071 A 
ATOM     11  C10 UNK     1      38.630  -0.829   8.057  1.00  0.00     0.074 A 
ENDROOT
BRANCH   5  12
ATOM     12  C4  UNK     1      37.424  -6.244   4.844  1.00  0.00    -0.002 A 
ATOM     13  C12 UNK     1      36.690  -6.449   3.673  1.00  0.00     0.017 A 
ATOM     14  C14 UNK     1      36.805  -7.650   2.975  1.00  0.00     0.037 A 
ATOM     15  C15 UNK     1      37.655  -8.652   3.445  1.00  0.00     0.065 A 
ATOM     16  C13 UNK     1      38.389  -8.451   4.614  1.00  0.00     0.037 A 
ATOM     17  C11 UNK     1      38.274  -7.249   5.312  1.00  0.00     0.017 A 
BRANCH  15  18
ATOM     18  O5  UNK     1      37.767  -9.824   2.764  1.00  0.00    -0.361 OA
ATOM     19  H10 UNK     1      38.233  -9.659   1.926  1.00  0.00     0.217 HD
ENDBRANCH  15  18
ENDBRANCH   5  12
BRANCH   8  20
ATOM     20  O2  UNK     1      36.275  -0.652   8.026  1.00  0.00    -0.360 OA
ATOM     21  H8  UNK     1      36.457   0.301   8.020  1.00  0.00     0.217 HD
ENDBRANCH   8  20
BRANCH  10  22
ATOM     22  O4  UNK     1      41.012  -0.992   8.095  1.00  0.00    -0.361 OA
ATOM     23  H9  UNK     1      41.383  -0.493   7.347  1.00  0.00     0.217 HD
ENDBRANCH  10  22
TORSDOF 4
ENDMDL
MODEL 15
REMARK VINA RESULT:      -5.6      2.565      3.526
REMARK  4 active torsions:
REMARK  status: ('A' for Active; 'I' for Inactive)
REMARK    1  A    between atoms: O2_2  and  C7_12 
REMARK    2  A    between atoms: O4_4  and  C9_14 
REMARK    3  A    between atoms: O5_5  and  C15_20 
REMARK    4  A    between atoms: C3_8  and  C4_9 
ROOT
ATOM      1  O1  UNK     1      42.683   3.196   8.711  1.00  0.00    -0.309 OA
ATOM      2  O3  UNK     1      46.079   1.585   7.140  1.00  0.00    -0.287 OA
ATOM      3  C1  UNK     1      45.088   3.322   8.398  1.00  0.00     0.081 A 
ATOM      4  C2  UNK     1      43.890   3.818   8.907  1.00  0.00     0.095 A 
ATOM      5  C3  UNK     1      42.656   2.028   7.964  1.00  0.00     0.090 A 
ATOM      6  C5  UNK     1      45.065   2.077   7.614  1.00  0.00     0.190 A 
ATOM      7  C6  UNK     1      43.742   1.448   7.428  1.00  0.00     0.094 A 
ATOM      8  C7  UNK     1      46.288   3.997   8.630  1.00  0.00     0.085 A 
ATOM      9  C8  UNK     1      43.884   4.995   9.655  1.00  0.00     0.075 A 
ATOM     10  C9  UNK     1      45.080   5.674   9.891  1.00  0.00     0.071 A 
ATOM     11  C10 UNK     1      46.280   5.176   9.378  1.00  0.00     0.074 A 
ENDROOT
BRANCH   5  12
ATOM     12  C4  UNK     1      41.310   1.440   7.819  1.00  0.00    -0.002 A 
ATOM     13  C12 UNK     1      41.071   0.124   8.222  1.00  0.00     0.017 A 
ATOM     14  C14 UNK     1      39.799  -0.431   8.084  1.00  0.00     0.037 A 
ATOM     15  C15 UNK     1      38.761   0.327   7.543  1.00  0.00     0.065 A 
ATOM     16  C13 UNK     1      38.996   1.641   7.139  1.00  0.00     0.037 A 
ATOM     17  C11 UNK     1      40.268   2.198   7.277  1.00  0.00     0.017 A 
BRANCH  15  18
ATOM     18  O5  UNK     1      37.521  -0.215   7.408  1.00  0.00    -0.361 OA
ATOM     19  H10 UNK     1      37.056  -0.155   8.261  1.00  0.00     0.217 HD
ENDBRANCH  15  18
ENDBRANCH   5  12
BRANCH   8  20
ATOM     20  O2  UNK     1      47.485   3.554   8.155  1.00  0.00    -0.360 OA
ATOM     21  H8  UNK     1      47.359   3.050   7.336  1.00  0.00     0.217 HD
ENDBRANCH   8  20
BRANCH  10  22
ATOM     22  O4  UNK     1      45.078   6.823  10.620  1.00  0.00    -0.361 OA
ATOM     23  H9  UNK     1      45.998   7.089  10.793  1.00  0.00     0.217 HD
ENDBRANCH  10  22
TORSDOF 4
ENDMDL
MODEL 16
REMARK VINA RESULT:      -5.6      2.176      4.130
REMARK  4 active torsions:
REMARK  status: ('A' for Active; 'I' for Inactive)
REMARK    1  A    between atoms: O2_2  and  C7_12 
REMARK    2  A    between atoms: O4_4  and  C9_14 
REMARK    3  A    between atoms: O5_5  and  C15_20 
REMARK    4  A    between atoms: C3_8  and  C4_9 
ROOT
ATOM      1  O1  UNK     1      47.959   1.646   9.539  1.00  0.00    -0.309 OA
ATOM      2  O3  UNK     1      49.741   3.976   6.711  1.00  0.00    -0.287 OA
ATOM      3  C1  UNK     1      49.922   2.863   8.788  1.00  0.00     0.081 A 
ATOM      4  C2  UNK     1      49.254   2.065   9.714  1.00  0.00     0.095 A 
ATOM      5  C3  UNK     1      47.286   2.042   8.393  1.00  0.00     0.090 A 
ATOM      6  C5  UNK     1      49.215   3.278   7.567  1.00  0.00     0.190 A 
ATOM      7  C6  UNK     1      47.823   2.803   7.426  1.00  0.00     0.094 A 
ATOM      8  C7  UNK     1      51.241   3.260   9.018  1.00  0.00     0.085 A 
ATOM      9  C8  UNK     1      49.902   1.656  10.879  1.00  0.00     0.075 A 
ATOM     10  C9  UNK     1      51.220   2.050  11.114  1.00  0.00     0.071 A 
ATOM     11  C10 UNK     1      51.888   2.850  10.186  1.00  0.00     0.074 A 
ENDROOT
BRANCH   5  12
ATOM     12  C4  UNK     1      45.904   1.532   8.303  1.00  0.00    -0.002 A 
ATOM     13  C12 UNK     1      45.130   1.797   7.171  1.00  0.00     0.017 A 
ATOM     14  C14 UNK     1      43.824   1.315   7.087  1.00  0.00     0.037 A 
ATOM     15  C15 UNK     1      43.287   0.566   8.134  1.00  0.00     0.065 A 
ATOM     16  C13 UNK     1      44.057   0.300   9.266  1.00  0.00     0.037 A 
ATOM     17  C11 UNK     1      45.363   0.782   9.351  1.00  0.00     0.017 A 
BRANCH  15  18
ATOM     18  O5  UNK     1      42.013   0.097   8.052  1.00  0.00    -0.361 OA
ATOM     19  H10 UNK     1      41.785  -0.345   8.888  1.00  0.00     0.217 HD
ENDBRANCH  15  18
ENDBRANCH   5  12
BRANCH   8  20
ATOM     20  O2  UNK     1      51.938   4.038   8.145  1.00  0.00    -0.360 OA
ATOM     21  H8  UNK     1      52.869   3.770   8.120  1.00  0.00     0.217 HD
ENDBRANCH   8  20
BRANCH  10  22
ATOM     22  O4  UNK     1      51.856   1.652  12.251  1.00  0.00    -0.361 OA
ATOM     23  H9  UNK     1      52.124   0.722  12.154  1.00  0.00     0.217 HD
ENDBRANCH  10  22
TORSDOF 4
ENDMDL
MODEL 17
REMARK VINA RESULT:      -5.6      5.946      8.853
REMARK  4 active torsions:
REMARK  status: ('A' for Active; 'I' for Inactive)
REMARK    1  A    between atoms: O2_2  and  C7_12 
REMARK    2  A    between atoms: O4_4  and  C9_14 
REMARK    3  A    between atoms: O5_5  and  C15_20 
REMARK    4  A    between atoms: C3_8  and  C4_9 
ROOT
ATOM      1  O1  UNK     1      38.885  -1.123   8.046  1.00  0.00    -0.309 OA
ATOM      2  O3  UNK     1      37.440  -3.356  11.133  1.00  0.00    -0.287 OA
ATOM      3  C1  UNK     1      37.988  -3.237   8.837  1.00  0.00     0.081 A 
ATOM      4  C2  UNK     1      38.491  -2.419   7.828  1.00  0.00     0.095 A 
ATOM      5  C3  UNK     1      38.767  -0.604   9.327  1.00  0.00     0.090 A 
ATOM      6  C5  UNK     1      37.871  -2.694  10.200  1.00  0.00     0.190 A 
ATOM      7  C6  UNK     1      38.304  -1.293  10.382  1.00  0.00     0.094 A 
ATOM      8  C7  UNK     1      37.604  -4.550   8.558  1.00  0.00     0.085 A 
ATOM      9  C8  UNK     1      38.615  -2.911   6.528  1.00  0.00     0.075 A 
ATOM     10  C9  UNK     1      38.232  -4.222   6.243  1.00  0.00     0.071 A 
ATOM     11  C10 UNK     1      37.727  -5.040   7.256  1.00  0.00     0.074 A 
ENDROOT
BRANCH   5  12
ATOM     12  C4  UNK     1      39.222   0.795   9.451  1.00  0.00    -0.002 A 
ATOM     13  C12 UNK     1      40.192   1.297   8.581  1.00  0.00     0.017 A 
ATOM     14  C14 UNK     1      40.622   2.619   8.699  1.00  0.00     0.037 A 
ATOM     15  C15 UNK     1      40.085   3.442   9.689  1.00  0.00     0.065 A 
ATOM     16  C13 UNK     1      39.118   2.943  10.561  1.00  0.00     0.037 A 
ATOM     17  C11 UNK     1      38.686   1.622  10.443  1.00  0.00     0.017 A 
BRANCH  15  18
ATOM     18  O5  UNK     1      40.506   4.730   9.805  1.00  0.00    -0.361 OA
ATOM     19  H10 UNK     1      40.011   5.160  10.523  1.00  0.00     0.217 HD
ENDBRANCH  15  18
ENDBRANCH   5  12
BRANCH   8  20
ATOM     20  O2  UNK     1      37.107  -5.389   9.508  1.00  0.00    -0.360 OA
ATOM     21  H8  UNK     1      37.818  -5.924   9.894  1.00  0.00     0.217 HD
ENDBRANCH   8  20
BRANCH  10  22
ATOM     22  O4  UNK     1      38.351  -4.705   4.976  1.00  0.00    -0.361 OA
ATOM     23  H9  UNK     1      39.282  -4.933   4.811  1.00  0.00     0.217 HD
ENDBRANCH  10  22
TORSDOF 4
ENDMDL
MODEL 18
REMARK VINA RESULT:      -5.5      3.211      4.703
REMARK  4 active torsions:
REMARK  status: ('A' for Active; 'I' for Inactive)
REMARK    1  A    between atoms: O2_2  and  C7_12 
REMARK    2  A    between atoms: O4_4  and  C9_14 
REMARK    3  A    between atoms: O5_5  and  C15_20 
REMARK    4  A    between atoms: C3_8  and  C4_9 
ROOT
ATOM      1  O1  UNK     1      41.546   3.272   9.081  1.00  0.00    -0.309 OA
ATOM      2  O3  UNK     1      45.396   2.868   7.809  1.00  0.00    -0.287 OA
ATOM      3  C1  UNK     1      43.813   4.141   9.017  1.00  0.00     0.081 A 
ATOM      4  C2  UNK     1      42.482   4.217   9.419  1.00  0.00     0.095 A 
ATOM      5  C3  UNK     1      41.944   2.200   8.297  1.00  0.00     0.090 A 
ATOM      6  C5  UNK     1      44.243   2.999   8.194  1.00  0.00     0.190 A 
ATOM      7  C6  UNK     1      43.198   2.011   7.855  1.00  0.00     0.094 A 
ATOM      8  C7  UNK     1      44.723   5.132   9.392  1.00  0.00     0.085 A 
ATOM      9  C8  UNK     1      42.050   5.288  10.201  1.00  0.00     0.075 A 
ATOM     10  C9  UNK     1      42.954   6.281  10.579  1.00  0.00     0.071 A 
ATOM     11  C10 UNK     1      44.289   6.203  10.174  1.00  0.00     0.074 A 
ENDROOT
BRANCH   5  12
ATOM     12  C4  UNK     1      40.862   1.242   7.997  1.00  0.00    -0.002 A 
ATOM     13  C12 UNK     1      41.049  -0.123   8.228  1.00  0.00     0.017 A 
ATOM     14  C14 UNK     1      40.026  -1.027   7.943  1.00  0.00     0.037 A 
ATOM     15  C15 UNK     1      38.813  -0.571   7.428  1.00  0.00     0.065 A 
ATOM     16  C13 UNK     1      38.624   0.791   7.195  1.00  0.00     0.037 A 
ATOM     17  C11 UNK     1      39.646   1.697   7.480  1.00  0.00     0.017 A 
BRANCH  15  18
ATOM     18  O5  UNK     1      37.816  -1.454   7.150  1.00  0.00    -0.361 OA
ATOM     19  H10 UNK     1      38.195  -2.221   6.687  1.00  0.00     0.217 HD
ENDBRANCH  15  18
ENDBRANCH   5  12
BRANCH   8  20
ATOM     20  O2  UNK     1      46.034   5.103   9.026  1.00  0.00    -0.360 OA
ATOM     21  H8  UNK     1      46.602   5.343   9.775  1.00  0.00     0.217 HD
ENDBRANCH   8  20
BRANCH  10  22
ATOM     22  O4  UNK     1      42.536   7.328  11.343  1.00  0.00    -0.361 OA
ATOM     23  H9  UNK     1      42.646   7.097  12.281  1.00  0.00     0.217 HD
ENDBRANCH  10  22
TORSDOF 4
ENDMDL
