MODEL 1
REMARK VINA RESULT:      -7.9      0.000      0.000
REMARK  4 active torsions:
REMARK  status: ('A' for Active; 'I' for Inactive)
REMARK    1  A    between atoms: O2_2  and  C7_12 
REMARK    2  A    between atoms: O4_4  and  C9_14 
REMARK    3  A    between atoms: O5_5  and  C15_20 
REMARK    4  A    between atoms: C3_8  and  C4_9 
ROOT
ATOM      1  O1  UNK     1      39.725  15.569  -0.058  1.00  0.00    -0.309 OA
ATOM      2  O3  UNK     1      41.137  16.573  -3.746  1.00  0.00    -0.287 OA
ATOM      3  C1  UNK     1      39.999  17.251  -1.789  1.00  0.00     0.081 A 
ATOM      4  C2  UNK     1      39.544  16.842  -0.538  1.00  0.00     0.095 A 
ATOM      5  C3  UNK     1      40.384  14.649  -0.860  1.00  0.00     0.090 A 
ATOM      6  C5  UNK     1      40.708  16.281  -2.639  1.00  0.00     0.190 A 
ATOM      7  C6  UNK     1      40.876  14.924  -2.079  1.00  0.00     0.094 A 
ATOM      8  C7  UNK     1      39.787  18.560  -2.225  1.00  0.00     0.085 A 
ATOM      9  C8  UNK     1      38.871  17.742   0.288  1.00  0.00     0.075 A 
ATOM     10  C9  UNK     1      38.656  19.052  -0.143  1.00  0.00     0.071 A 
ATOM     11  C10 UNK     1      39.113  19.460  -1.398  1.00  0.00     0.074 A 
ENDROOT
BRANCH   5  12
ATOM     12  C4  UNK     1      40.530  13.315  -0.246  1.00  0.00    -0.002 A 
ATOM     13  C12 UNK     1      40.151  13.108   1.082  1.00  0.00     0.017 A 
ATOM     14  C14 UNK     1      40.289  11.847   1.661  1.00  0.00     0.037 A 
ATOM     15  C15 UNK     1      40.808  10.788   0.915  1.00  0.00     0.065 A 
ATOM     16  C13 UNK     1      41.188  10.992  -0.411  1.00  0.00     0.037 A 
ATOM     17  C11 UNK     1      41.050  12.253  -0.992  1.00  0.00     0.017 A 
BRANCH  15  18
ATOM     18  O5  UNK     1      40.944   9.559   1.481  1.00  0.00    -0.361 OA
ATOM     19  H10 UNK     1      41.890   9.341   1.537  1.00  0.00     0.217 HD
ENDBRANCH  15  18
ENDBRANCH   5  12
BRANCH   8  20
ATOM     20  O2  UNK     1      40.213  19.009  -3.438  1.00  0.00    -0.360 OA
ATOM     21  H8  UNK     1      41.163  19.202  -3.415  1.00  0.00     0.217 HD
ENDBRANCH   8  20
BRANCH  10  22
ATOM     22  O4  UNK     1      37.999  19.933   0.661  1.00  0.00    -0.361 OA
ATOM     23  H9  UNK     1      37.041  19.828   0.529  1.00  0.00     0.217 HD
ENDBRANCH  10  22
TORSDOF 4
ENDMDL
MODEL 2
REMARK VINA RESULT:      -7.0      0.980      1.159
REMARK  4 active torsions:
REMARK  status: ('A' for Active; 'I' for Inactive)
REMARK    1  A    between atoms: O2_2  and  C7_12 
REMARK    2  A    between atoms: O4_4  and  C9_14 
REMARK    3  A    between atoms: O5_5  and  C15_20 
REMARK    4  A    between atoms: C3_8  and  C4_9 
ROOT
ATOM      1  O1  UNK     1      39.713  16.197  -0.306  1.00  0.00    -0.309 OA
ATOM      2  O3  UNK     1      40.870  17.988  -3.778  1.00  0.00    -0.287 OA
ATOM      3  C1  UNK     1      39.839  18.208  -1.663  1.00  0.00     0.081 A 
ATOM      4  C2  UNK     1      39.471  17.534  -0.500  1.00  0.00     0.095 A 
ATOM      5  C3  UNK     1      40.344  15.487  -1.316  1.00  0.00     0.090 A 
ATOM      6  C5  UNK     1      40.518  17.460  -2.733  1.00  0.00     0.190 A 
ATOM      7  C6  UNK     1      40.752  16.024  -2.476  1.00  0.00     0.094 A 
ATOM      8  C7  UNK     1      39.569  19.570  -1.806  1.00  0.00     0.085 A 
ATOM      9  C8  UNK     1      38.829  18.221   0.530  1.00  0.00     0.075 A 
ATOM     10  C9  UNK     1      38.556  19.582   0.392  1.00  0.00     0.071 A 
ATOM     11  C10 UNK     1      38.924  20.256  -0.774  1.00  0.00     0.074 A 
ENDROOT
BRANCH   5  12
ATOM     12  C4  UNK     1      40.560  14.061  -1.001  1.00  0.00    -0.002 A 
ATOM     13  C12 UNK     1      39.838  13.452   0.029  1.00  0.00     0.017 A 
ATOM     14  C14 UNK     1      40.043  12.105   0.326  1.00  0.00     0.037 A 
ATOM     15  C15 UNK     1      40.970  11.362  -0.405  1.00  0.00     0.065 A 
ATOM     16  C13 UNK     1      41.693  11.967  -1.433  1.00  0.00     0.037 A 
ATOM     17  C11 UNK     1      41.488  13.314  -1.731  1.00  0.00     0.017 A 
BRANCH  15  18
ATOM     18  O5  UNK     1      41.170  10.048  -0.113  1.00  0.00    -0.361 OA
ATOM     19  H10 UNK     1      41.866   9.699  -0.696  1.00  0.00     0.217 HD
ENDBRANCH  15  18
ENDBRANCH   5  12
BRANCH   8  20
ATOM     20  O2  UNK     1      39.908  20.274  -2.922  1.00  0.00    -0.360 OA
ATOM     21  H8  UNK     1      39.145  20.772  -3.254  1.00  0.00     0.217 HD
ENDBRANCH   8  20
BRANCH  10  22
ATOM     22  O4  UNK     1      37.929  20.255   1.396  1.00  0.00    -0.361 OA
ATOM     23  H9  UNK     1      38.522  20.952   1.727  1.00  0.00     0.217 HD
ENDBRANCH  10  22
TORSDOF 4
ENDMDL
MODEL 3
REMARK VINA RESULT:      -6.8      1.252      3.002
REMARK  4 active torsions:
REMARK  status: ('A' for Active; 'I' for Inactive)
REMARK    1  A    between atoms: O2_2  and  C7_12 
REMARK    2  A    between atoms: O4_4  and  C9_14 
REMARK    3  A    between atoms: O5_5  and  C15_20 
REMARK    4  A    between atoms: C3_8  and  C4_9 
ROOT
ATOM      1  O1  UNK     1      40.590  15.179  -1.915  1.00  0.00    -0.309 OA
ATOM      2  O3  UNK     1      38.860  18.081   0.363  1.00  0.00    -0.287 OA
ATOM      3  C1  UNK     1      39.847  17.481  -1.699  1.00  0.00     0.081 A 
ATOM      4  C2  UNK     1      40.429  16.443  -2.423  1.00  0.00     0.095 A 
ATOM      5  C3  UNK     1      40.162  14.929  -0.620  1.00  0.00     0.090 A 
ATOM      6  C5  UNK     1      39.382  17.218  -0.328  1.00  0.00     0.190 A 
ATOM      7  C6  UNK     1      39.581  15.843   0.174  1.00  0.00     0.094 A 
ATOM      8  C7  UNK     1      39.707  18.749  -2.268  1.00  0.00     0.085 A 
ATOM      9  C8  UNK     1      40.876  16.667  -3.726  1.00  0.00     0.075 A 
ATOM     10  C9  UNK     1      40.739  17.931  -4.299  1.00  0.00     0.071 A 
ATOM     11  C10 UNK     1      40.156  18.971  -3.571  1.00  0.00     0.074 A 
ENDROOT
BRANCH   5  12
ATOM     12  C4  UNK     1      40.378  13.538  -0.175  1.00  0.00    -0.002 A 
ATOM     13  C12 UNK     1      40.859  12.581  -1.072  1.00  0.00     0.017 A 
ATOM     14  C14 UNK     1      41.062  11.267  -0.651  1.00  0.00     0.037 A 
ATOM     15  C15 UNK     1      40.785  10.905   0.667  1.00  0.00     0.065 A 
ATOM     16  C13 UNK     1      40.303  11.858   1.565  1.00  0.00     0.037 A 
ATOM     17  C11 UNK     1      40.100  13.172   1.145  1.00  0.00     0.017 A 
BRANCH  15  18
ATOM     18  O5  UNK     1      40.982   9.622   1.076  1.00  0.00    -0.361 OA
ATOM     19  H10 UNK     1      40.879   9.581   2.043  1.00  0.00     0.217 HD
ENDBRANCH  15  18
ENDBRANCH   5  12
BRANCH   8  20
ATOM     20  O2  UNK     1      39.145  19.796  -1.602  1.00  0.00    -0.360 OA
ATOM     21  H8  UNK     1      39.076  20.570  -2.183  1.00  0.00     0.217 HD
ENDBRANCH   8  20
BRANCH  10  22
ATOM     22  O4  UNK     1      41.174  18.152  -5.570  1.00  0.00    -0.361 OA
ATOM     23  H9  UNK     1      41.977  18.701  -5.538  1.00  0.00     0.217 HD
ENDBRANCH  10  22
TORSDOF 4
ENDMDL
MODEL 4
REMARK VINA RESULT:      -6.7      1.478      6.576
REMARK  4 active torsions:
REMARK  status: ('A' for Active; 'I' for Inactive)
REMARK    1  A    between atoms: O2_2  and  C7_12 
REMARK    2  A    between atoms: O4_4  and  C9_14 
REMARK    3  A    between atoms: O5_5  and  C15_20 
REMARK    4  A    between atoms: C3_8  and  C4_9 
ROOT
ATOM      1  O1  UNK     1      39.660  14.630   0.110  1.00  0.00    -0.309 OA
ATOM      2  O3  UNK     1      42.296  13.269  -2.683  1.00  0.00    -0.287 OA
ATOM      3  C1  UNK     1      40.943  12.783  -0.808  1.00  0.00     0.081 A 
ATOM      4  C2  UNK     1      40.045  13.313   0.117  1.00  0.00     0.095 A 
ATOM      5  C3  UNK     1      40.195  15.470  -0.856  1.00  0.00     0.090 A 
ATOM      6  C5  UNK     1      41.505  13.668  -1.840  1.00  0.00     0.190 A 
ATOM      7  C6  UNK     1      41.062  15.076  -1.803  1.00  0.00     0.094 A 
ATOM      8  C7  UNK     1      41.299  11.434  -0.754  1.00  0.00     0.085 A 
ATOM      9  C8  UNK     1      39.496  12.495   1.104  1.00  0.00     0.075 A 
ATOM     10  C9  UNK     1      39.848  11.146   1.162  1.00  0.00     0.071 A 
ATOM     11  C10 UNK     1      40.748  10.617   0.235  1.00  0.00     0.074 A 
ENDROOT
BRANCH   5  12
ATOM     12  C4  UNK     1      39.710  16.861  -0.776  1.00  0.00    -0.002 A 
ATOM     13  C12 UNK     1      38.952  17.279   0.321  1.00  0.00     0.017 A 
ATOM     14  C14 UNK     1      38.493  18.594   0.395  1.00  0.00     0.037 A 
ATOM     15  C15 UNK     1      38.790  19.496  -0.626  1.00  0.00     0.065 A 
ATOM     16  C13 UNK     1      39.546  19.082  -1.723  1.00  0.00     0.037 A 
ATOM     17  C11 UNK     1      40.005  17.767  -1.798  1.00  0.00     0.017 A 
BRANCH  15  18
ATOM     18  O5  UNK     1      38.341  20.778  -0.553  1.00  0.00    -0.361 OA
ATOM     19  H10 UNK     1      38.246  21.025   0.383  1.00  0.00     0.217 HD
ENDBRANCH  15  18
ENDBRANCH   5  12
BRANCH   8  20
ATOM     20  O2  UNK     1      42.170  10.868  -1.633  1.00  0.00    -0.360 OA
ATOM     21  H8  UNK     1      42.169  11.353  -2.473  1.00  0.00     0.217 HD
ENDBRANCH   8  20
BRANCH  10  22
ATOM     22  O4  UNK     1      39.313  10.345   2.124  1.00  0.00    -0.361 OA
ATOM     23  H9  UNK     1      38.382  10.167   1.906  1.00  0.00     0.217 HD
ENDBRANCH  10  22
TORSDOF 4
ENDMDL
MODEL 5
REMARK VINA RESULT:      -5.6      9.630     11.850
REMARK  4 active torsions:
REMARK  status: ('A' for Active; 'I' for Inactive)
REMARK    1  A    between atoms: O2_2  and  C7_12 
REMARK    2  A    between atoms: O4_4  and  C9_14 
REMARK    3  A    between atoms: O5_5  and  C15_20 
REMARK    4  A    between atoms: C3_8  and  C4_9 
ROOT
ATOM      1  O1  UNK     1      45.840  11.299  -7.731  1.00  0.00    -0.309 OA
ATOM      2  O3  UNK     1      48.169   8.331  -9.269  1.00  0.00    -0.287 OA
ATOM      3  C1  UNK     1      46.063   9.402  -9.231  1.00  0.00     0.081 A 
ATOM      4  C2  UNK     1      45.323  10.438  -8.666  1.00  0.00     0.095 A 
ATOM      5  C3  UNK     1      47.155  11.123  -7.327  1.00  0.00     0.090 A 
ATOM      6  C5  UNK     1      47.461   9.217  -8.813  1.00  0.00     0.190 A 
ATOM      7  C6  UNK     1      47.970  10.168  -7.803  1.00  0.00     0.094 A 
ATOM      8  C7  UNK     1      45.485   8.556 -10.179  1.00  0.00     0.085 A 
ATOM      9  C8  UNK     1      43.996  10.636  -9.046  1.00  0.00     0.075 A 
ATOM     10  C9  UNK     1      43.413   9.793  -9.993  1.00  0.00     0.071 A 
ATOM     11  C10 UNK     1      44.156   8.754 -10.559  1.00  0.00     0.074 A 
ENDROOT
BRANCH   5  12
ATOM     12  C4  UNK     1      47.611  12.105  -6.324  1.00  0.00    -0.002 A 
ATOM     13  C12 UNK     1      47.541  11.803  -4.963  1.00  0.00     0.017 A 
ATOM     14  C14 UNK     1      47.971  12.733  -4.016  1.00  0.00     0.037 A 
ATOM     15  C15 UNK     1      48.474  13.967  -4.427  1.00  0.00     0.065 A 
ATOM     16  C13 UNK     1      48.545  14.273  -5.786  1.00  0.00     0.037 A 
ATOM     17  C11 UNK     1      48.115  13.344  -6.734  1.00  0.00     0.017 A 
BRANCH  15  18
ATOM     18  O5  UNK     1      48.892  14.874  -3.503  1.00  0.00    -0.361 OA
ATOM     19  H10 UNK     1      49.858  14.971  -3.573  1.00  0.00     0.217 HD
ENDBRANCH  15  18
ENDBRANCH   5  12
BRANCH   8  20
ATOM     20  O2  UNK     1      46.165   7.530 -10.761  1.00  0.00    -0.360 OA
ATOM     21  H8  UNK     1      46.695   7.056 -10.101  1.00  0.00     0.217 HD
ENDBRANCH   8  20
BRANCH  10  22
ATOM     22  O4  UNK     1      42.117   9.983 -10.367  1.00  0.00    -0.361 OA
ATOM     23  H9  UNK     1      41.910  10.932 -10.314  1.00  0.00     0.217 HD
ENDBRANCH  10  22
TORSDOF 4
ENDMDL
MODEL 6
REMARK VINA RESULT:      -5.6     10.242     12.204
REMARK  4 active torsions:
REMARK  status: ('A' for Active; 'I' for Inactive)
REMARK    1  A    between atoms: O2_2  and  C7_12 
REMARK    2  A    between atoms: O4_4  and  C9_14 
REMARK    3  A    between atoms: O5_5  and  C15_20 
REMARK    4  A    between atoms: C3_8  and  C4_9 
ROOT
ATOM      1  O1  UNK     1      46.112  11.246  -7.883  1.00  0.00    -0.309 OA
ATOM      2  O3  UNK     1      47.908   7.792  -9.084  1.00  0.00    -0.287 OA
ATOM      3  C1  UNK     1      45.945   9.105  -9.018  1.00  0.00     0.081 A 
ATOM      4  C2  UNK     1      45.394  10.307  -8.579  1.00  0.00     0.095 A 
ATOM      5  C3  UNK     1      47.443  10.981  -7.597  1.00  0.00     0.090 A 
ATOM      6  C5  UNK     1      47.360   8.824  -8.727  1.00  0.00     0.190 A 
ATOM      7  C6  UNK     1      48.089   9.865  -7.972  1.00  0.00     0.094 A 
ATOM      8  C7  UNK     1      45.167   8.186  -9.725  1.00  0.00     0.085 A 
ATOM      9  C8  UNK     1      44.056  10.599  -8.845  1.00  0.00     0.075 A 
ATOM     10  C9  UNK     1      43.273   9.684  -9.550  1.00  0.00     0.071 A 
ATOM     11  C10 UNK     1      43.827   8.479  -9.989  1.00  0.00     0.074 A 
ENDROOT
BRANCH   5  12
ATOM     12  C4  UNK     1      48.122  12.057  -6.850  1.00  0.00    -0.002 A 
ATOM     13  C12 UNK     1      49.108  12.828  -7.470  1.00  0.00     0.017 A 
ATOM     14  C14 UNK     1      49.750  13.845  -6.763  1.00  0.00     0.037 A 
ATOM     15  C15 UNK     1      49.408  14.095  -5.434  1.00  0.00     0.065 A 
ATOM     16  C13 UNK     1      48.424  13.326  -4.811  1.00  0.00     0.037 A 
ATOM     17  C11 UNK     1      47.782  12.309  -5.518  1.00  0.00     0.017 A 
BRANCH  15  18
ATOM     18  O5  UNK     1      50.035  15.086  -4.745  1.00  0.00    -0.361 OA
ATOM     19  H10 UNK     1      50.694  15.505  -5.325  1.00  0.00     0.217 HD
ENDBRANCH  15  18
ENDBRANCH   5  12
BRANCH   8  20
ATOM     20  O2  UNK     1      45.658   6.999 -10.176  1.00  0.00    -0.360 OA
ATOM     21  H8  UNK     1      45.296   6.263  -9.658  1.00  0.00     0.217 HD
ENDBRANCH   8  20
BRANCH  10  22
ATOM     22  O4  UNK     1      41.967   9.965  -9.811  1.00  0.00    -0.361 OA
ATOM     23  H9  UNK     1      41.408   9.295  -9.381  1.00  0.00     0.217 HD
ENDBRANCH  10  22
TORSDOF 4
ENDMDL
MODEL 7
REMARK VINA RESULT:      -5.5      9.748     12.206
REMARK  4 active torsions:
REMARK  status: ('A' for Active; 'I' for Inactive)
REMARK    1  A    between atoms: O2_2  and  C7_12 
REMARK    2  A    between atoms: O4_4  and  C9_14 
REMARK    3  A    between atoms: O5_5  and  C15_20 
REMARK    4  A    between atoms: C3_8  and  C4_9 
ROOT
ATOM      1  O1  UNK     1      46.121  10.970  -7.714  1.00  0.00    -0.309 OA
ATOM      2  O3  UNK     1      48.935   8.755  -9.656  1.00  0.00    -0.287 OA
ATOM      3  C1  UNK     1      46.647   9.270  -9.367  1.00  0.00     0.081 A 
ATOM      4  C2  UNK     1      45.738  10.060  -8.666  1.00  0.00     0.095 A 
ATOM      5  C3  UNK     1      47.472  11.102  -7.432  1.00  0.00     0.090 A 
ATOM      6  C5  UNK     1      48.083   9.414  -9.078  1.00  0.00     0.190 A 
ATOM      7  C6  UNK     1      48.443  10.405  -8.043  1.00  0.00     0.094 A 
ATOM      8  C7  UNK     1      46.200   8.360 -10.327  1.00  0.00     0.085 A 
ATOM      9  C8  UNK     1      44.371   9.945  -8.923  1.00  0.00     0.075 A 
ATOM     10  C9  UNK     1      43.920   9.037  -9.881  1.00  0.00     0.071 A 
ATOM     11  C10 UNK     1      44.833   8.245 -10.582  1.00  0.00     0.074 A 
ENDROOT
BRANCH   5  12
ATOM     12  C4  UNK     1      47.773  12.111  -6.397  1.00  0.00    -0.002 A 
ATOM     13  C12 UNK     1      48.279  13.361  -6.762  1.00  0.00     0.017 A 
ATOM     14  C14 UNK     1      48.564  14.313  -5.783  1.00  0.00     0.037 A 
ATOM     15  C15 UNK     1      48.344  14.020  -4.438  1.00  0.00     0.065 A 
ATOM     16  C13 UNK     1      47.840  12.772  -4.070  1.00  0.00     0.037 A 
ATOM     17  C11 UNK     1      47.554  11.819  -5.048  1.00  0.00     0.017 A 
BRANCH  15  18
ATOM     18  O5  UNK     1      48.623  14.949  -3.484  1.00  0.00    -0.361 OA
ATOM     19  H10 UNK     1      47.928  15.630  -3.496  1.00  0.00     0.217 HD
ENDBRANCH  15  18
ENDBRANCH   5  12
BRANCH   8  20
ATOM     20  O2  UNK     1      47.048   7.567 -11.038  1.00  0.00    -0.360 OA
ATOM     21  H8  UNK     1      46.805   6.633 -10.936  1.00  0.00     0.217 HD
ENDBRANCH   8  20
BRANCH  10  22
ATOM     22  O4  UNK     1      42.587   8.922 -10.134  1.00  0.00    -0.361 OA
ATOM     23  H9  UNK     1      42.160   8.476  -9.382  1.00  0.00     0.217 HD
ENDBRANCH  10  22
TORSDOF 4
ENDMDL
MODEL 8
REMARK VINA RESULT:      -5.5     10.242     13.110
REMARK  4 active torsions:
REMARK  status: ('A' for Active; 'I' for Inactive)
REMARK    1  A    between atoms: O2_2  and  C7_12 
REMARK    2  A    between atoms: O4_4  and  C9_14 
REMARK    3  A    between atoms: O5_5  and  C15_20 
REMARK    4  A    between atoms: C3_8  and  C4_9 
ROOT
ATOM      1  O1  UNK     1      48.420   9.747  -6.964  1.00  0.00    -0.309 OA
ATOM      2  O3  UNK     1      46.103  10.078 -10.299  1.00  0.00    -0.287 OA
ATOM      3  C1  UNK     1      47.522   8.728  -8.978  1.00  0.00     0.081 A 
ATOM      4  C2  UNK     1      48.297   8.682  -7.821  1.00  0.00     0.095 A 
ATOM      5  C3  UNK     1      47.751  10.922  -7.271  1.00  0.00     0.090 A 
ATOM      6  C5  UNK     1      46.802   9.969  -9.302  1.00  0.00     0.190 A 
ATOM      7  C6  UNK     1      46.969  11.087  -8.351  1.00  0.00     0.094 A 
ATOM      8  C7  UNK     1      47.432   7.612  -9.813  1.00  0.00     0.085 A 
ATOM      9  C8  UNK     1      48.988   7.516  -7.490  1.00  0.00     0.075 A 
ATOM     10  C9  UNK     1      48.901   6.399  -8.321  1.00  0.00     0.071 A 
ATOM     11  C10 UNK     1      48.125   6.447  -9.481  1.00  0.00     0.074 A 
ENDROOT
BRANCH   5  12
ATOM     12  C4  UNK     1      47.948  12.000  -6.282  1.00  0.00    -0.002 A 
ATOM     13  C12 UNK     1      47.750  11.750  -4.922  1.00  0.00     0.017 A 
ATOM     14  C14 UNK     1      47.936  12.769  -3.989  1.00  0.00     0.037 A 
ATOM     15  C15 UNK     1      48.320  14.042  -4.411  1.00  0.00     0.065 A 
ATOM     16  C13 UNK     1      48.517  14.295  -5.769  1.00  0.00     0.037 A 
ATOM     17  C11 UNK     1      48.332  13.276  -6.703  1.00  0.00     0.017 A 
BRANCH  15  18
ATOM     18  O5  UNK     1      48.500  15.036  -3.500  1.00  0.00    -0.361 OA
ATOM     19  H10 UNK     1      47.641  15.255  -3.099  1.00  0.00     0.217 HD
ENDBRANCH  15  18
ENDBRANCH   5  12
BRANCH   8  20
ATOM     20  O2  UNK     1      46.688   7.606 -10.954  1.00  0.00    -0.360 OA
ATOM     21  H8  UNK     1      45.929   8.203 -10.867  1.00  0.00     0.217 HD
ENDBRANCH   8  20
BRANCH  10  22
ATOM     22  O4  UNK     1      49.575   5.260  -8.001  1.00  0.00    -0.361 OA
ATOM     23  H9  UNK     1      48.940   4.599  -7.673  1.00  0.00     0.217 HD
ENDBRANCH  10  22
TORSDOF 4
ENDMDL
MODEL 9
REMARK VINA RESULT:      -5.5     10.243     13.132
REMARK  4 active torsions:
REMARK  status: ('A' for Active; 'I' for Inactive)
REMARK    1  A    between atoms: O2_2  and  C7_12 
REMARK    2  A    between atoms: O4_4  and  C9_14 
REMARK    3  A    between atoms: O5_5  and  C15_20 
REMARK    4  A    between atoms: C3_8  and  C4_9 
ROOT
ATOM      1  O1  UNK     1      48.418   9.749  -6.967  1.00  0.00    -0.309 OA
ATOM      2  O3  UNK     1      46.108  10.082 -10.306  1.00  0.00    -0.287 OA
ATOM      3  C1  UNK     1      47.523   8.731  -8.982  1.00  0.00     0.081 A 
ATOM      4  C2  UNK     1      48.295   8.684  -7.823  1.00  0.00     0.095 A 
ATOM      5  C3  UNK     1      47.750  10.925  -7.275  1.00  0.00     0.090 A 
ATOM      6  C5  UNK     1      46.805   9.973  -9.308  1.00  0.00     0.190 A 
ATOM      7  C6  UNK     1      46.971  11.090  -8.356  1.00  0.00     0.094 A 
ATOM      8  C7  UNK     1      47.434   7.615  -9.817  1.00  0.00     0.085 A 
ATOM      9  C8  UNK     1      48.985   7.518  -7.491  1.00  0.00     0.075 A 
ATOM     10  C9  UNK     1      48.899   6.401  -8.322  1.00  0.00     0.071 A 
ATOM     11  C10 UNK     1      48.125   6.449  -9.483  1.00  0.00     0.074 A 
ENDROOT
BRANCH   5  12
ATOM     12  C4  UNK     1      47.946  12.003  -6.286  1.00  0.00    -0.002 A 
ATOM     13  C12 UNK     1      48.329  13.279  -6.705  1.00  0.00     0.017 A 
ATOM     14  C14 UNK     1      48.514  14.297  -5.769  1.00  0.00     0.037 A 
ATOM     15  C15 UNK     1      48.318  14.042  -4.412  1.00  0.00     0.065 A 
ATOM     16  C13 UNK     1      47.936  12.768  -3.990  1.00  0.00     0.037 A 
ATOM     17  C11 UNK     1      47.750  11.750  -4.925  1.00  0.00     0.017 A 
BRANCH  15  18
ATOM     18  O5  UNK     1      48.500  15.035  -3.500  1.00  0.00    -0.361 OA
ATOM     19  H10 UNK     1      48.553  14.641  -2.612  1.00  0.00     0.217 HD
ENDBRANCH  15  18
ENDBRANCH   5  12
BRANCH   8  20
ATOM     20  O2  UNK     1      46.693   7.609 -10.960  1.00  0.00    -0.360 OA
ATOM     21  H8  UNK     1      47.236   7.876 -11.718  1.00  0.00     0.217 HD
ENDBRANCH   8  20
BRANCH  10  22
ATOM     22  O4  UNK     1      49.570   5.261  -8.000  1.00  0.00    -0.361 OA
ATOM     23  H9  UNK     1      49.031   4.493  -8.258  1.00  0.00     0.217 HD
ENDBRANCH  10  22
TORSDOF 4
ENDMDL
MODEL 10
REMARK VINA RESULT:      -5.4      9.830     11.492
REMARK  4 active torsions:
REMARK  status: ('A' for Active; 'I' for Inactive)
REMARK    1  A    between atoms: O2_2  and  C7_12 
REMARK    2  A    between atoms: O4_4  and  C9_14 
REMARK    3  A    between atoms: O5_5  and  C15_20 
REMARK    4  A    between atoms: C3_8  and  C4_9 
ROOT
ATOM      1  O1  UNK     1      47.200  12.021  -7.031  1.00  0.00    -0.309 OA
ATOM      2  O3  UNK     1      50.543  12.907  -9.185  1.00  0.00    -0.287 OA
ATOM      3  C1  UNK     1      49.314  13.207  -7.189  1.00  0.00     0.081 A 
ATOM      4  C2  UNK     1      48.150  12.862  -6.507  1.00  0.00     0.095 A 
ATOM      5  C3  UNK     1      47.407  11.501  -8.300  1.00  0.00     0.090 A 
ATOM      6  C5  UNK     1      49.543  12.649  -8.531  1.00  0.00     0.190 A 
ATOM      7  C6  UNK     1      48.490  11.752  -9.052  1.00  0.00     0.094 A 
ATOM      8  C7  UNK     1      50.248  14.066  -6.605  1.00  0.00     0.085 A 
ATOM      9  C8  UNK     1      47.910  13.375  -5.232  1.00  0.00     0.075 A 
ATOM     10  C9  UNK     1      48.839  14.234  -4.644  1.00  0.00     0.071 A 
ATOM     11  C10 UNK     1      50.005  14.580  -5.330  1.00  0.00     0.074 A 
ENDROOT
BRANCH   5  12
ATOM     12  C4  UNK     1      46.328  10.607  -8.764  1.00  0.00    -0.002 A 
ATOM     13  C12 UNK     1      46.639   9.381  -9.357  1.00  0.00     0.017 A 
ATOM     14  C14 UNK     1      45.620   8.537  -9.796  1.00  0.00     0.037 A 
ATOM     15  C15 UNK     1      44.286   8.915  -9.644  1.00  0.00     0.065 A 
ATOM     16  C13 UNK     1      43.972  10.139  -9.054  1.00  0.00     0.037 A 
ATOM     17  C11 UNK     1      44.991  10.984  -8.614  1.00  0.00     0.017 A 
BRANCH  15  18
ATOM     18  O5  UNK     1      43.292   8.092 -10.074  1.00  0.00    -0.361 OA
ATOM     19  H10 UNK     1      42.616   8.023  -9.377  1.00  0.00     0.217 HD
ENDBRANCH  15  18
ENDBRANCH   5  12
BRANCH   8  20
ATOM     20  O2  UNK     1      51.400  14.433  -7.230  1.00  0.00    -0.360 OA
ATOM     21  H8  UNK     1      52.143  13.894  -6.916  1.00  0.00     0.217 HD
ENDBRANCH   8  20
BRANCH  10  22
ATOM     22  O4  UNK     1      48.608  14.738  -3.400  1.00  0.00    -0.361 OA
ATOM     23  H9  UNK     1      47.684  15.038  -3.348  1.00  0.00     0.217 HD
ENDBRANCH  10  22
TORSDOF 4
ENDMDL
MODEL 11
REMARK VINA RESULT:      -5.3     10.179     11.434
REMARK  4 active torsions:
REMARK  status: ('A' for Active; 'I' for Inactive)
REMARK    1  A    between atoms: O2_2  and  C7_12 
REMARK    2  A    between atoms: O4_4  and  C9_14 
REMARK    3  A    between atoms: O5_5  and  C15_20 
REMARK    4  A    between atoms: C3_8  and  C4_9 
ROOT
ATOM      1  O1  UNK     1      46.273  11.340  -7.539  1.00  0.00    -0.309 OA
ATOM      2  O3  UNK     1      48.405  12.216 -10.898  1.00  0.00    -0.287 OA
ATOM      3  C1  UNK     1      46.356  11.504  -9.961  1.00  0.00     0.081 A 
ATOM      4  C2  UNK     1      45.685  11.222  -8.773  1.00  0.00     0.095 A 
ATOM      5  C3  UNK     1      47.596  11.750  -7.474  1.00  0.00     0.090 A 
ATOM      6  C5  UNK     1      47.757  11.949  -9.896  1.00  0.00     0.190 A 
ATOM      7  C6  UNK     1      48.345  12.058  -8.546  1.00  0.00     0.094 A 
ATOM      8  C7  UNK     1      45.707  11.367 -11.189  1.00  0.00     0.085 A 
ATOM      9  C8  UNK     1      44.356  10.800  -8.806  1.00  0.00     0.075 A 
ATOM     10  C9  UNK     1      43.702  10.662 -10.031  1.00  0.00     0.071 A 
ATOM     11  C10 UNK     1      44.377  10.944 -11.221  1.00  0.00     0.074 A 
ENDROOT
BRANCH   5  12
ATOM     12  C4  UNK     1      48.127  11.849  -6.101  1.00  0.00    -0.002 A 
ATOM     13  C12 UNK     1      48.125  13.075  -5.433  1.00  0.00     0.017 A 
ATOM     14  C14 UNK     1      48.627  13.168  -4.135  1.00  0.00     0.037 A 
ATOM     15  C15 UNK     1      49.134  12.034  -3.500  1.00  0.00     0.065 A 
ATOM     16  C13 UNK     1      49.139  10.807  -4.164  1.00  0.00     0.037 A 
ATOM     17  C11 UNK     1      48.636  10.714  -5.462  1.00  0.00     0.017 A 
BRANCH  15  18
ATOM     18  O5  UNK     1      49.625  12.125  -2.235  1.00  0.00    -0.361 OA
ATOM     19  H10 UNK     1      49.676  11.232  -1.852  1.00  0.00     0.217 HD
ENDBRANCH  15  18
ENDBRANCH   5  12
BRANCH   8  20
ATOM     20  O2  UNK     1      46.318  11.631 -12.377  1.00  0.00    -0.360 OA
ATOM     21  H8  UNK     1      47.064  11.027 -12.517  1.00  0.00     0.217 HD
ENDBRANCH   8  20
BRANCH  10  22
ATOM     22  O4  UNK     1      42.405  10.250 -10.067  1.00  0.00    -0.361 OA
ATOM     23  H9  UNK     1      42.152   9.925  -9.185  1.00  0.00     0.217 HD
ENDBRANCH  10  22
TORSDOF 4
ENDMDL
MODEL 12
REMARK VINA RESULT:      -5.3     10.161     11.476
REMARK  4 active torsions:
REMARK  status: ('A' for Active; 'I' for Inactive)
REMARK    1  A    between atoms: O2_2  and  C7_12 
REMARK    2  A    between atoms: O4_4  and  C9_14 
REMARK    3  A    between atoms: O5_5  and  C15_20 
REMARK    4  A    between atoms: C3_8  and  C4_9 
ROOT
ATOM      1  O1  UNK     1      46.294  11.338  -7.558  1.00  0.00    -0.309 OA
ATOM      2  O3  UNK     1      48.472  12.200 -10.891  1.00  0.00    -0.287 OA
ATOM      3  C1  UNK     1      46.407  11.505  -9.978  1.00  0.00     0.081 A 
ATOM      4  C2  UNK     1      45.719  11.227  -8.799  1.00  0.00     0.095 A 
ATOM      5  C3  UNK     1      47.620  11.736  -7.477  1.00  0.00     0.090 A 
ATOM      6  C5  UNK     1      47.811  11.937  -9.897  1.00  0.00     0.190 A 
ATOM      7  C6  UNK     1      48.384  12.038  -8.539  1.00  0.00     0.094 A 
ATOM      8  C7  UNK     1      45.770  11.376 -11.215  1.00  0.00     0.085 A 
ATOM      9  C8  UNK     1      44.387  10.818  -8.848  1.00  0.00     0.075 A 
ATOM     10  C9  UNK     1      43.746  10.687 -10.081  1.00  0.00     0.071 A 
ATOM     11  C10 UNK     1      44.437  10.965 -11.262  1.00  0.00     0.074 A 
ENDROOT
BRANCH   5  12
ATOM     12  C4  UNK     1      48.135  11.828  -6.097  1.00  0.00    -0.002 A 
ATOM     13  C12 UNK     1      48.645  10.693  -5.461  1.00  0.00     0.017 A 
ATOM     14  C14 UNK     1      49.131  10.780  -4.157  1.00  0.00     0.037 A 
ATOM     15  C15 UNK     1      49.110  12.002  -3.484  1.00  0.00     0.065 A 
ATOM     16  C13 UNK     1      48.601  13.137  -4.116  1.00  0.00     0.037 A 
ATOM     17  C11 UNK     1      48.115  13.050  -5.420  1.00  0.00     0.017 A 
BRANCH  15  18
ATOM     18  O5  UNK     1      49.584  12.086  -2.211  1.00  0.00    -0.361 OA
ATOM     19  H10 UNK     1      50.535  12.288  -2.242  1.00  0.00     0.217 HD
ENDBRANCH  15  18
ENDBRANCH   5  12
BRANCH   8  20
ATOM     20  O2  UNK     1      46.398  11.636 -12.395  1.00  0.00    -0.360 OA
ATOM     21  H8  UNK     1      45.763  11.622 -13.127  1.00  0.00     0.217 HD
ENDBRANCH   8  20
BRANCH  10  22
ATOM     22  O4  UNK     1      42.446  10.287 -10.133  1.00  0.00    -0.361 OA
ATOM     23  H9  UNK     1      42.368   9.544 -10.756  1.00  0.00     0.217 HD
ENDBRANCH  10  22
TORSDOF 4
ENDMDL
MODEL 13
REMARK VINA RESULT:      -5.3     10.190     12.305
REMARK  4 active torsions:
REMARK  status: ('A' for Active; 'I' for Inactive)
REMARK    1  A    between atoms: O2_2  and  C7_12 
REMARK    2  A    between atoms: O4_4  and  C9_14 
REMARK    3  A    between atoms: O5_5  and  C15_20 
REMARK    4  A    between atoms: C3_8  and  C4_9 
ROOT
ATOM      1  O1  UNK     1      47.842  11.461  -6.063  1.00  0.00    -0.309 OA
ATOM      2  O3  UNK     1      50.839   8.928  -7.158  1.00  0.00    -0.287 OA
ATOM      3  C1  UNK     1      49.884  10.285  -5.476  1.00  0.00     0.081 A 
ATOM      4  C2  UNK     1      48.831  11.142  -5.166  1.00  0.00     0.095 A 
ATOM      5  C3  UNK     1      47.901  10.911  -7.335  1.00  0.00     0.090 A 
ATOM      6  C5  UNK     1      49.945   9.690  -6.820  1.00  0.00     0.190 A 
ATOM      7  C6  UNK     1      48.860  10.067  -7.749  1.00  0.00     0.094 A 
ATOM      8  C7  UNK     1      50.863   9.994  -4.523  1.00  0.00     0.085 A 
ATOM      9  C8  UNK     1      48.748  11.717  -3.898  1.00  0.00     0.075 A 
ATOM     10  C9  UNK     1      49.723  11.431  -2.942  1.00  0.00     0.071 A 
ATOM     11  C10 UNK     1      50.779  10.571  -3.254  1.00  0.00     0.074 A 
ENDROOT
BRANCH   5  12
ATOM     12  C4  UNK     1      46.788  11.315  -8.215  1.00  0.00    -0.002 A 
ATOM     13  C12 UNK     1      45.481  11.354  -7.722  1.00  0.00     0.017 A 
ATOM     14  C14 UNK     1      44.430  11.736  -8.555  1.00  0.00     0.037 A 
ATOM     15  C15 UNK     1      44.680  12.079  -9.884  1.00  0.00     0.065 A 
ATOM     16  C13 UNK     1      45.983  12.040 -10.379  1.00  0.00     0.037 A 
ATOM     17  C11 UNK     1      47.036  11.659  -9.547  1.00  0.00     0.017 A 
BRANCH  15  18
ATOM     18  O5  UNK     1      43.654  12.450 -10.696  1.00  0.00    -0.361 OA
ATOM     19  H10 UNK     1      43.834  12.131 -11.597  1.00  0.00     0.217 HD
ENDBRANCH  15  18
ENDBRANCH   5  12
BRANCH   8  20
ATOM     20  O2  UNK     1      51.911   9.163  -4.775  1.00  0.00    -0.360 OA
ATOM     21  H8  UNK     1      51.615   8.239  -4.795  1.00  0.00     0.217 HD
ENDBRANCH   8  20
BRANCH  10  22
ATOM     22  O4  UNK     1      49.646  11.990  -1.703  1.00  0.00    -0.361 OA
ATOM     23  H9  UNK     1      48.862  11.638  -1.246  1.00  0.00     0.217 HD
ENDBRANCH  10  22
TORSDOF 4
ENDMDL
MODEL 14
REMARK VINA RESULT:      -5.2     11.179     13.586
REMARK  4 active torsions:
REMARK  status: ('A' for Active; 'I' for Inactive)
REMARK    1  A    between atoms: O2_2  and  C7_12 
REMARK    2  A    between atoms: O4_4  and  C9_14 
REMARK    3  A    between atoms: O5_5  and  C15_20 
REMARK    4  A    between atoms: C3_8  and  C4_9 
ROOT
ATOM      1  O1  UNK     1      52.125  11.209  -2.532  1.00  0.00    -0.309 OA
ATOM      2  O3  UNK     1      50.886  11.610   1.329  1.00  0.00    -0.287 OA
ATOM      3  C1  UNK     1      52.695  11.448  -0.183  1.00  0.00     0.081 A 
ATOM      4  C2  UNK     1      53.049  11.310  -1.523  1.00  0.00     0.095 A 
ATOM      5  C3  UNK     1      50.779  11.237  -2.199  1.00  0.00     0.090 A 
ATOM      6  C5  UNK     1      51.268  11.488   0.174  1.00  0.00     0.190 A 
ATOM      7  C6  UNK     1      50.313  11.373  -0.947  1.00  0.00     0.094 A 
ATOM      8  C7  UNK     1      53.679  11.548   0.802  1.00  0.00     0.085 A 
ATOM      9  C8  UNK     1      54.395  11.272  -1.888  1.00  0.00     0.075 A 
ATOM     10  C9  UNK     1      55.383  11.371  -0.908  1.00  0.00     0.071 A 
ATOM     11  C10 UNK     1      55.026  11.509   0.435  1.00  0.00     0.074 A 
ENDROOT
BRANCH   5  12
ATOM     12  C4  UNK     1      49.872  11.126  -3.358  1.00  0.00    -0.002 A 
ATOM     13  C12 UNK     1      50.043  10.098  -4.288  1.00  0.00     0.017 A 
ATOM     14  C14 UNK     1      49.187   9.995  -5.384  1.00  0.00     0.037 A 
ATOM     15  C15 UNK     1      48.156  10.919  -5.554  1.00  0.00     0.065 A 
ATOM     16  C13 UNK     1      47.982  11.947  -4.627  1.00  0.00     0.037 A 
ATOM     17  C11 UNK     1      48.838  12.051  -3.531  1.00  0.00     0.017 A 
BRANCH  15  18
ATOM     18  O5  UNK     1      47.321  10.818  -6.623  1.00  0.00    -0.361 OA
ATOM     19  H10 UNK     1      47.571  10.036  -7.145  1.00  0.00     0.217 HD
ENDBRANCH  15  18
ENDBRANCH   5  12
BRANCH   8  20
ATOM     20  O2  UNK     1      53.385  11.685   2.125  1.00  0.00    -0.360 OA
ATOM     21  H8  UNK     1      53.356  12.622   2.371  1.00  0.00     0.217 HD
ENDBRANCH   8  20
BRANCH  10  22
ATOM     22  O4  UNK     1      56.698  11.334  -1.260  1.00  0.00    -0.361 OA
ATOM     23  H9  UNK     1      56.777  11.548  -2.206  1.00  0.00     0.217 HD
ENDBRANCH  10  22
TORSDOF 4
ENDMDL
MODEL 15
REMARK VINA RESULT:      -5.2     10.580     12.833
REMARK  4 active torsions:
REMARK  status: ('A' for Active; 'I' for Inactive)
REMARK    1  A    between atoms: O2_2  and  C7_12 
REMARK    2  A    between atoms: O4_4  and  C9_14 
REMARK    3  A    between atoms: O5_5  and  C15_20 
REMARK    4  A    between atoms: C3_8  and  C4_9 
ROOT
ATOM      1  O1  UNK     1      51.058  10.127  -3.760  1.00  0.00    -0.309 OA
ATOM      2  O3  UNK     1      47.477  11.796  -4.753  1.00  0.00    -0.287 OA
ATOM      3  C1  UNK     1      49.256  10.367  -5.370  1.00  0.00     0.081 A 
ATOM      4  C2  UNK     1      50.477   9.831  -4.967  1.00  0.00     0.095 A 
ATOM      5  C3  UNK     1      50.404  11.005  -2.909  1.00  0.00     0.090 A 
ATOM      6  C5  UNK     1      48.553  11.291  -4.465  1.00  0.00     0.190 A 
ATOM      7  C6  UNK     1      49.221  11.579  -3.180  1.00  0.00     0.094 A 
ATOM      8  C7  UNK     1      48.710  10.030  -6.610  1.00  0.00     0.085 A 
ATOM      9  C8  UNK     1      51.162   8.951  -5.805  1.00  0.00     0.075 A 
ATOM     10  C9  UNK     1      50.622   8.611  -7.045  1.00  0.00     0.071 A 
ATOM     11  C10 UNK     1      49.398   9.150  -7.447  1.00  0.00     0.074 A 
ENDROOT
BRANCH   5  12
ATOM     12  C4  UNK     1      51.113  11.248  -1.638  1.00  0.00    -0.002 A 
ATOM     13  C12 UNK     1      50.394  11.544  -0.478  1.00  0.00     0.017 A 
ATOM     14  C14 UNK     1      51.065  11.775   0.723  1.00  0.00     0.037 A 
ATOM     15  C15 UNK     1      52.458  11.710   0.768  1.00  0.00     0.065 A 
ATOM     16  C13 UNK     1      53.179  11.416  -0.388  1.00  0.00     0.037 A 
ATOM     17  C11 UNK     1      52.509  11.184  -1.590  1.00  0.00     0.017 A 
BRANCH  15  18
ATOM     18  O5  UNK     1      53.112  11.936   1.940  1.00  0.00    -0.361 OA
ATOM     19  H10 UNK     1      53.848  12.551   1.776  1.00  0.00     0.217 HD
ENDBRANCH  15  18
ENDBRANCH   5  12
BRANCH   8  20
ATOM     20  O2  UNK     1      47.520  10.526  -7.049  1.00  0.00    -0.360 OA
ATOM     21  H8  UNK     1      47.546  11.495  -7.079  1.00  0.00     0.217 HD
ENDBRANCH   8  20
BRANCH  10  22
ATOM     22  O4  UNK     1      51.288   7.753  -7.865  1.00  0.00    -0.361 OA
ATOM     23  H9  UNK     1      52.221   7.716  -7.592  1.00  0.00     0.217 HD
ENDBRANCH  10  22
TORSDOF 4
ENDMDL
