MODEL 1
REMARK VINA RESULT:      -6.0      0.000      0.000
REMARK  4 active torsions:
REMARK  status: ('A' for Active; 'I' for Inactive)
REMARK    1  A    between atoms: O2_2  and  C7_12 
REMARK    2  A    between atoms: O4_4  and  C9_14 
REMARK    3  A    between atoms: O5_5  and  C15_20 
REMARK    4  A    between atoms: C3_8  and  C4_9 
ROOT
ATOM      1  O1  UNK     1      44.632   1.758   7.496  1.00  0.00    -0.309 OA
ATOM      2  O3  UNK     1      46.444   0.391  10.879  1.00  0.00    -0.287 OA
ATOM      3  C1  UNK     1      46.672   1.443   8.775  1.00  0.00     0.081 A 
ATOM      4  C2  UNK     1      45.989   1.889   7.646  1.00  0.00     0.095 A 
ATOM      5  C3  UNK     1      43.911   1.146   8.511  1.00  0.00     0.090 A 
ATOM      6  C5  UNK     1      45.910   0.803   9.859  1.00  0.00     0.190 A 
ATOM      7  C6  UNK     1      44.453   0.683   9.648  1.00  0.00     0.094 A 
ATOM      8  C7  UNK     1      48.056   1.604   8.875  1.00  0.00     0.085 A 
ATOM      9  C8  UNK     1      46.688   2.501   6.605  1.00  0.00     0.075 A 
ATOM     10  C9  UNK     1      48.070   2.664   6.699  1.00  0.00     0.071 A 
ATOM     11  C10 UNK     1      48.753   2.216   7.832  1.00  0.00     0.074 A 
ENDROOT
BRANCH   5  12
ATOM     12  C4  UNK     1      42.461   1.062   8.249  1.00  0.00    -0.002 A 
ATOM     13  C12 UNK     1      41.794   2.127   7.640  1.00  0.00     0.017 A 
ATOM     14  C14 UNK     1      40.423   2.047   7.395  1.00  0.00     0.037 A 
ATOM     15  C15 UNK     1      39.715   0.902   7.757  1.00  0.00     0.065 A 
ATOM     16  C13 UNK     1      40.377  -0.164   8.366  1.00  0.00     0.037 A 
ATOM     17  C11 UNK     1      41.748  -0.084   8.612  1.00  0.00     0.017 A 
BRANCH  15  18
ATOM     18  O5  UNK     1      38.378   0.825   7.518  1.00  0.00    -0.361 OA
ATOM     19  H10 UNK     1      38.236   0.382   6.663  1.00  0.00     0.217 HD
ENDBRANCH  15  18
ENDBRANCH   5  12
BRANCH   8  20
ATOM     20  O2  UNK     1      48.768   1.186   9.957  1.00  0.00    -0.360 OA
ATOM     21  H8  UNK     1      48.620   1.779  10.711  1.00  0.00     0.217 HD
ENDBRANCH   8  20
BRANCH  10  22
ATOM     22  O4  UNK     1      48.755   3.261   5.685  1.00  0.00    -0.361 OA
ATOM     23  H9  UNK     1      48.985   4.169   5.950  1.00  0.00     0.217 HD
ENDBRANCH  10  22
TORSDOF 4
ENDMDL
MODEL 2
REMARK VINA RESULT:      -6.0      1.717      6.934
REMARK  4 active torsions:
REMARK  status: ('A' for Active; 'I' for Inactive)
REMARK    1  A    between atoms: O2_2  and  C7_12 
REMARK    2  A    between atoms: O4_4  and  C9_14 
REMARK    3  A    between atoms: O5_5  and  C15_20 
REMARK    4  A    between atoms: C3_8  and  C4_9 
ROOT
ATOM      1  O1  UNK     1      42.679   1.180   7.943  1.00  0.00    -0.309 OA
ATOM      2  O3  UNK     1      41.330  -1.711  10.478  1.00  0.00    -0.287 OA
ATOM      3  C1  UNK     1      40.814  -0.101   8.827  1.00  0.00     0.081 A 
ATOM      4  C2  UNK     1      41.341   0.874   7.984  1.00  0.00     0.095 A 
ATOM      5  C3  UNK     1      43.539   0.492   8.786  1.00  0.00     0.090 A 
ATOM      6  C5  UNK     1      41.724  -0.841   9.715  1.00  0.00     0.190 A 
ATOM      7  C6  UNK     1      43.153  -0.473   9.636  1.00  0.00     0.094 A 
ATOM      8  C7  UNK     1      39.444  -0.371   8.825  1.00  0.00     0.085 A 
ATOM      9  C8  UNK     1      40.500   1.588   7.131  1.00  0.00     0.075 A 
ATOM     10  C9  UNK     1      39.130   1.323   7.125  1.00  0.00     0.071 A 
ATOM     11  C10 UNK     1      38.603   0.345   7.971  1.00  0.00     0.074 A 
ENDROOT
BRANCH   5  12
ATOM     12  C4  UNK     1      44.953   0.895   8.657  1.00  0.00    -0.002 A 
ATOM     13  C12 UNK     1      45.887   0.495   9.616  1.00  0.00     0.017 A 
ATOM     14  C14 UNK     1      47.223   0.877   9.494  1.00  0.00     0.037 A 
ATOM     15  C15 UNK     1      47.630   1.660   8.414  1.00  0.00     0.065 A 
ATOM     16  C13 UNK     1      46.700   2.062   7.455  1.00  0.00     0.037 A 
ATOM     17  C11 UNK     1      45.364   1.680   7.576  1.00  0.00     0.017 A 
BRANCH  15  18
ATOM     18  O5  UNK     1      48.933   2.032   8.296  1.00  0.00    -0.361 OA
ATOM     19  H10 UNK     1      49.099   2.787   8.888  1.00  0.00     0.217 HD
ENDBRANCH  15  18
ENDBRANCH   5  12
BRANCH   8  20
ATOM     20  O2  UNK     1      38.879  -1.315   9.629  1.00  0.00    -0.360 OA
ATOM     21  H8  UNK     1      38.873  -2.178   9.187  1.00  0.00     0.217 HD
ENDBRANCH   8  20
BRANCH  10  22
ATOM     22  O4  UNK     1      38.306   2.017   6.293  1.00  0.00    -0.361 OA
ATOM     23  H9  UNK     1      38.272   1.565   5.432  1.00  0.00     0.217 HD
ENDBRANCH  10  22
TORSDOF 4
ENDMDL
MODEL 3
REMARK VINA RESULT:      -6.0      0.067      1.082
REMARK  4 active torsions:
REMARK  status: ('A' for Active; 'I' for Inactive)
REMARK    1  A    between atoms: O2_2  and  C7_12 
REMARK    2  A    between atoms: O4_4  and  C9_14 
REMARK    3  A    between atoms: O5_5  and  C15_20 
REMARK    4  A    between atoms: C3_8  and  C4_9 
ROOT
ATOM      1  O1  UNK     1      44.622   1.742   7.500  1.00  0.00    -0.309 OA
ATOM      2  O3  UNK     1      46.451   0.263  10.826  1.00  0.00    -0.287 OA
ATOM      3  C1  UNK     1      46.670   1.373   8.752  1.00  0.00     0.081 A 
ATOM      4  C2  UNK     1      45.982   1.858   7.642  1.00  0.00     0.095 A 
ATOM      5  C3  UNK     1      43.905   1.108   8.503  1.00  0.00     0.090 A 
ATOM      6  C5  UNK     1      45.912   0.708   9.823  1.00  0.00     0.190 A 
ATOM      7  C6  UNK     1      44.452   0.607   9.622  1.00  0.00     0.094 A 
ATOM      8  C7  UNK     1      48.056   1.519   8.844  1.00  0.00     0.085 A 
ATOM      9  C8  UNK     1      46.677   2.494   6.613  1.00  0.00     0.075 A 
ATOM     10  C9  UNK     1      48.062   2.642   6.700  1.00  0.00     0.071 A 
ATOM     11  C10 UNK     1      48.750   2.155   7.813  1.00  0.00     0.074 A 
ENDROOT
BRANCH   5  12
ATOM     12  C4  UNK     1      42.452   1.044   8.252  1.00  0.00    -0.002 A 
ATOM     13  C12 UNK     1      41.733  -0.110   8.575  1.00  0.00     0.017 A 
ATOM     14  C14 UNK     1      40.360  -0.170   8.337  1.00  0.00     0.037 A 
ATOM     15  C15 UNK     1      39.701   0.923   7.775  1.00  0.00     0.065 A 
ATOM     16  C13 UNK     1      40.415   2.076   7.450  1.00  0.00     0.037 A 
ATOM     17  C11 UNK     1      41.788   2.138   7.688  1.00  0.00     0.017 A 
BRANCH  15  18
ATOM     18  O5  UNK     1      38.362   0.864   7.542  1.00  0.00    -0.361 OA
ATOM     19  H10 UNK     1      37.891   0.927   8.391  1.00  0.00     0.217 HD
ENDBRANCH  15  18
ENDBRANCH   5  12
BRANCH   8  20
ATOM     20  O2  UNK     1      48.774   1.064   9.908  1.00  0.00    -0.360 OA
ATOM     21  H8  UNK     1      49.400   0.378   9.627  1.00  0.00     0.217 HD
ENDBRANCH   8  20
BRANCH  10  22
ATOM     22  O4  UNK     1      48.743   3.263   5.698  1.00  0.00    -0.361 OA
ATOM     23  H9  UNK     1      49.625   3.512   6.024  1.00  0.00     0.217 HD
ENDBRANCH  10  22
TORSDOF 4
ENDMDL
MODEL 4
REMARK VINA RESULT:      -6.0      1.697      6.862
REMARK  4 active torsions:
REMARK  status: ('A' for Active; 'I' for Inactive)
REMARK    1  A    between atoms: O2_2  and  C7_12 
REMARK    2  A    between atoms: O4_4  and  C9_14 
REMARK    3  A    between atoms: O5_5  and  C15_20 
REMARK    4  A    between atoms: C3_8  and  C4_9 
ROOT
ATOM      1  O1  UNK     1      42.643   1.297   7.860  1.00  0.00    -0.309 OA
ATOM      2  O3  UNK     1      41.335  -1.637  10.366  1.00  0.00    -0.287 OA
ATOM      3  C1  UNK     1      40.794  -0.006   8.744  1.00  0.00     0.081 A 
ATOM      4  C2  UNK     1      41.308   0.984   7.910  1.00  0.00     0.095 A 
ATOM      5  C3  UNK     1      43.515   0.601   8.683  1.00  0.00     0.090 A 
ATOM      6  C5  UNK     1      41.717  -0.753   9.612  1.00  0.00     0.190 A 
ATOM      7  C6  UNK     1      43.143  -0.378   9.523  1.00  0.00     0.094 A 
ATOM      8  C7  UNK     1      39.425  -0.282   8.753  1.00  0.00     0.085 A 
ATOM      9  C8  UNK     1      40.454   1.707   7.076  1.00  0.00     0.075 A 
ATOM     10  C9  UNK     1      39.086   1.434   7.080  1.00  0.00     0.071 A 
ATOM     11  C10 UNK     1      38.572   0.442   7.918  1.00  0.00     0.074 A 
ENDROOT
BRANCH   5  12
ATOM     12  C4  UNK     1      44.926   1.012   8.546  1.00  0.00    -0.002 A 
ATOM     13  C12 UNK     1      45.331   1.777   7.449  1.00  0.00     0.017 A 
ATOM     14  C14 UNK     1      46.665   2.165   7.320  1.00  0.00     0.037 A 
ATOM     15  C15 UNK     1      47.598   1.789   8.286  1.00  0.00     0.065 A 
ATOM     16  C13 UNK     1      47.197   1.025   9.382  1.00  0.00     0.037 A 
ATOM     17  C11 UNK     1      45.864   0.637   9.513  1.00  0.00     0.017 A 
BRANCH  15  18
ATOM     18  O5  UNK     1      48.899   2.167   8.159  1.00  0.00    -0.361 OA
ATOM     19  H10 UNK     1      48.938   3.135   8.065  1.00  0.00     0.217 HD
ENDBRANCH  15  18
ENDBRANCH   5  12
BRANCH   8  20
ATOM     20  O2  UNK     1      38.874  -1.240   9.549  1.00  0.00    -0.360 OA
ATOM     21  H8  UNK     1      37.907  -1.165   9.549  1.00  0.00     0.217 HD
ENDBRANCH   8  20
BRANCH  10  22
ATOM     22  O4  UNK     1      38.250   2.137   6.268  1.00  0.00    -0.361 OA
ATOM     23  H9  UNK     1      38.171   3.046   6.605  1.00  0.00     0.217 HD
ENDBRANCH  10  22
TORSDOF 4
ENDMDL
MODEL 5
REMARK VINA RESULT:      -5.9      1.916      7.217
REMARK  4 active torsions:
REMARK  status: ('A' for Active; 'I' for Inactive)
REMARK    1  A    between atoms: O2_2  and  C7_12 
REMARK    2  A    between atoms: O4_4  and  C9_14 
REMARK    3  A    between atoms: O5_5  and  C15_20 
REMARK    4  A    between atoms: C3_8  and  C4_9 
ROOT
ATOM      1  O1  UNK     1      43.500  -0.113   8.950  1.00  0.00    -0.309 OA
ATOM      2  O3  UNK     1      40.451   2.062   7.345  1.00  0.00    -0.287 OA
ATOM      3  C1  UNK     1      41.116   0.155   8.572  1.00  0.00     0.081 A 
ATOM      4  C2  UNK     1      42.204  -0.539   9.096  1.00  0.00     0.095 A 
ATOM      5  C3  UNK     1      43.735   1.057   8.242  1.00  0.00     0.090 A 
ATOM      6  C5  UNK     1      41.359   1.402   7.829  1.00  0.00     0.190 A 
ATOM      7  C6  UNK     1      42.771   1.817   7.697  1.00  0.00     0.094 A 
ATOM      8  C7  UNK     1      39.817  -0.325   8.753  1.00  0.00     0.085 A 
ATOM      9  C8  UNK     1      42.000  -1.722   9.806  1.00  0.00     0.075 A 
ATOM     10  C9  UNK     1      40.705  -2.207   9.989  1.00  0.00     0.071 A 
ATOM     11  C10 UNK     1      39.615  -1.510   9.463  1.00  0.00     0.074 A 
ENDROOT
BRANCH   5  12
ATOM     12  C4  UNK     1      45.161   1.426   8.150  1.00  0.00    -0.002 A 
ATOM     13  C12 UNK     1      46.058   1.012   9.138  1.00  0.00     0.017 A 
ATOM     14  C14 UNK     1      47.405   1.362   9.050  1.00  0.00     0.037 A 
ATOM     15  C15 UNK     1      47.860   2.127   7.976  1.00  0.00     0.065 A 
ATOM     16  C13 UNK     1      46.967   2.542   6.989  1.00  0.00     0.037 A 
ATOM     17  C11 UNK     1      45.619   2.192   7.075  1.00  0.00     0.017 A 
BRANCH  15  18
ATOM     18  O5  UNK     1      49.174   2.469   7.892  1.00  0.00    -0.361 OA
ATOM     19  H10 UNK     1      49.614   1.875   7.259  1.00  0.00     0.217 HD
ENDBRANCH  15  18
ENDBRANCH   5  12
BRANCH   8  20
ATOM     20  O2  UNK     1      38.721   0.316   8.261  1.00  0.00    -0.360 OA
ATOM     21  H8  UNK     1      38.897   1.265   8.165  1.00  0.00     0.217 HD
ENDBRANCH   8  20
BRANCH  10  22
ATOM     22  O4  UNK     1      40.502  -3.361  10.682  1.00  0.00    -0.361 OA
ATOM     23  H9  UNK     1      41.364  -3.726  10.947  1.00  0.00     0.217 HD
ENDBRANCH  10  22
TORSDOF 4
ENDMDL
MODEL 6
REMARK VINA RESULT:      -5.9      1.873      7.622
REMARK  4 active torsions:
REMARK  status: ('A' for Active; 'I' for Inactive)
REMARK    1  A    between atoms: O2_2  and  C7_12 
REMARK    2  A    between atoms: O4_4  and  C9_14 
REMARK    3  A    between atoms: O5_5  and  C15_20 
REMARK    4  A    between atoms: C3_8  and  C4_9 
ROOT
ATOM      1  O1  UNK     1      41.935  -0.453   8.489  1.00  0.00    -0.309 OA
ATOM      2  O3  UNK     1      39.285   2.313   7.100  1.00  0.00    -0.287 OA
ATOM      3  C1  UNK     1      39.645   0.128   7.926  1.00  0.00     0.081 A 
ATOM      4  C2  UNK     1      40.604  -0.769   8.393  1.00  0.00     0.095 A 
ATOM      5  C3  UNK     1      42.344   0.813   8.096  1.00  0.00     0.090 A 
ATOM      6  C5  UNK     1      40.073   1.475   7.517  1.00  0.00     0.190 A 
ATOM      7  C6  UNK     1      41.516   1.765   7.637  1.00  0.00     0.094 A 
ATOM      8  C7  UNK     1      38.302  -0.248   7.850  1.00  0.00     0.085 A 
ATOM      9  C8  UNK     1      40.224  -2.051   8.789  1.00  0.00     0.075 A 
ATOM     10  C9  UNK     1      38.884  -2.432   8.715  1.00  0.00     0.071 A 
ATOM     11  C10 UNK     1      37.925  -1.532   8.246  1.00  0.00     0.074 A 
ENDROOT
BRANCH   5  12
ATOM     12  C4  UNK     1      43.793   1.049   8.246  1.00  0.00    -0.002 A 
ATOM     13  C12 UNK     1      44.488   1.784   7.283  1.00  0.00     0.017 A 
ATOM     14  C14 UNK     1      45.858   2.006   7.425  1.00  0.00     0.037 A 
ATOM     15  C15 UNK     1      46.537   1.493   8.530  1.00  0.00     0.065 A 
ATOM     16  C13 UNK     1      45.847   0.758   9.493  1.00  0.00     0.037 A 
ATOM     17  C11 UNK     1      44.477   0.536   9.352  1.00  0.00     0.017 A 
BRANCH  15  18
ATOM     18  O5  UNK     1      47.874   1.709   8.668  1.00  0.00    -0.361 OA
ATOM     19  H10 UNK     1      48.048   2.045   9.564  1.00  0.00     0.217 HD
ENDBRANCH  15  18
ENDBRANCH   5  12
BRANCH   8  20
ATOM     20  O2  UNK     1      37.328   0.591   7.401  1.00  0.00    -0.360 OA
ATOM     21  H8  UNK     1      37.437   0.760   6.452  1.00  0.00     0.217 HD
ENDBRANCH   8  20
BRANCH  10  22
ATOM     22  O4  UNK     1      38.510  -3.683   9.101  1.00  0.00    -0.361 OA
ATOM     23  H9  UNK     1      38.743  -4.314   8.397  1.00  0.00     0.217 HD
ENDBRANCH  10  22
TORSDOF 4
ENDMDL
MODEL 7
REMARK VINA RESULT:      -5.9      2.007      2.374
REMARK  4 active torsions:
REMARK  status: ('A' for Active; 'I' for Inactive)
REMARK    1  A    between atoms: O2_2  and  C7_12 
REMARK    2  A    between atoms: O4_4  and  C9_14 
REMARK    3  A    between atoms: O5_5  and  C15_20 
REMARK    4  A    between atoms: C3_8  and  C4_9 
ROOT
ATOM      1  O1  UNK     1      43.578   1.798   7.471  1.00  0.00    -0.309 OA
ATOM      2  O3  UNK     1      43.969   4.836  10.157  1.00  0.00    -0.287 OA
ATOM      3  C1  UNK     1      45.001   3.444   8.550  1.00  0.00     0.081 A 
ATOM      4  C2  UNK     1      44.798   2.402   7.649  1.00  0.00     0.095 A 
ATOM      5  C3  UNK     1      42.505   2.240   8.230  1.00  0.00     0.090 A 
ATOM      6  C5  UNK     1      43.863   3.924   9.350  1.00  0.00     0.190 A 
ATOM      7  C6  UNK     1      42.573   3.240   9.124  1.00  0.00     0.094 A 
ATOM      8  C7  UNK     1      46.264   4.023   8.689  1.00  0.00     0.085 A 
ATOM      9  C8  UNK     1      45.859   1.930   6.877  1.00  0.00     0.075 A 
ATOM     10  C9  UNK     1      47.124   2.504   7.012  1.00  0.00     0.071 A 
ATOM     11  C10 UNK     1      47.326   3.549   7.917  1.00  0.00     0.074 A 
ENDROOT
BRANCH   5  12
ATOM     12  C4  UNK     1      41.242   1.527   7.956  1.00  0.00    -0.002 A 
ATOM     13  C12 UNK     1      40.170   2.199   7.366  1.00  0.00     0.017 A 
ATOM     14  C14 UNK     1      38.977   1.525   7.108  1.00  0.00     0.037 A 
ATOM     15  C15 UNK     1      38.852   0.175   7.439  1.00  0.00     0.065 A 
ATOM     16  C13 UNK     1      39.921  -0.499   8.029  1.00  0.00     0.037 A 
ATOM     17  C11 UNK     1      41.114   0.175   8.287  1.00  0.00     0.017 A 
BRANCH  15  18
ATOM     18  O5  UNK     1      37.687  -0.482   7.188  1.00  0.00    -0.361 OA
ATOM     19  H10 UNK     1      37.210  -0.609   8.027  1.00  0.00     0.217 HD
ENDBRANCH  15  18
ENDBRANCH   5  12
BRANCH   8  20
ATOM     20  O2  UNK     1      46.514   5.043   9.555  1.00  0.00    -0.360 OA
ATOM     21  H8  UNK     1      47.445   5.036   9.829  1.00  0.00     0.217 HD
ENDBRANCH   8  20
BRANCH  10  22
ATOM     22  O4  UNK     1      48.162   2.046   6.260  1.00  0.00    -0.361 OA
ATOM     23  H9  UNK     1      47.835   1.821   5.372  1.00  0.00     0.217 HD
ENDBRANCH  10  22
TORSDOF 4
ENDMDL
MODEL 8
REMARK VINA RESULT:      -5.7      3.662      6.625
REMARK  4 active torsions:
REMARK  status: ('A' for Active; 'I' for Inactive)
REMARK    1  A    between atoms: O2_2  and  C7_12 
REMARK    2  A    between atoms: O4_4  and  C9_14 
REMARK    3  A    between atoms: O5_5  and  C15_20 
REMARK    4  A    between atoms: C3_8  and  C4_9 
ROOT
ATOM      1  O1  UNK     1      40.987   2.116   8.694  1.00  0.00    -0.309 OA
ATOM      2  O3  UNK     1      43.473  -0.966   9.655  1.00  0.00    -0.287 OA
ATOM      3  C1  UNK     1      41.384  -0.279   8.790  1.00  0.00     0.081 A 
ATOM      4  C2  UNK     1      40.585   0.821   8.483  1.00  0.00     0.095 A 
ATOM      5  C3  UNK     1      42.241   2.337   9.244  1.00  0.00     0.090 A 
ATOM      6  C5  UNK     1      42.719  -0.048   9.365  1.00  0.00     0.190 A 
ATOM      7  C6  UNK     1      43.104   1.362   9.575  1.00  0.00     0.094 A 
ATOM      8  C7  UNK     1      40.924  -1.576   8.553  1.00  0.00     0.085 A 
ATOM      9  C8  UNK     1      39.317   0.630   7.935  1.00  0.00     0.075 A 
ATOM     10  C9  UNK     1      38.852  -0.664   7.697  1.00  0.00     0.071 A 
ATOM     11  C10 UNK     1      39.653  -1.765   8.006  1.00  0.00     0.074 A 
ENDROOT
BRANCH   5  12
ATOM     12  C4  UNK     1      42.574   3.764   9.423  1.00  0.00    -0.002 A 
ATOM     13  C12 UNK     1      41.610   4.656   9.896  1.00  0.00     0.017 A 
ATOM     14  C14 UNK     1      41.925   6.004  10.064  1.00  0.00     0.037 A 
ATOM     15  C15 UNK     1      43.206   6.465   9.759  1.00  0.00     0.065 A 
ATOM     16  C13 UNK     1      44.171   5.577   9.285  1.00  0.00     0.037 A 
ATOM     17  C11 UNK     1      43.857   4.228   9.117  1.00  0.00     0.017 A 
BRANCH  15  18
ATOM     18  O5  UNK     1      43.513   7.780   9.922  1.00  0.00    -0.361 OA
ATOM     19  H10 UNK     1      42.814   8.319   9.512  1.00  0.00     0.217 HD
ENDBRANCH  15  18
ENDBRANCH   5  12
BRANCH   8  20
ATOM     20  O2  UNK     1      41.666  -2.682   8.835  1.00  0.00    -0.360 OA
ATOM     21  H8  UNK     1      41.248  -3.475   8.464  1.00  0.00     0.217 HD
ENDBRANCH   8  20
BRANCH  10  22
ATOM     22  O4  UNK     1      37.614  -0.854   7.162  1.00  0.00    -0.361 OA
ATOM     23  H9  UNK     1      37.594  -0.471   6.268  1.00  0.00     0.217 HD
ENDBRANCH  10  22
TORSDOF 4
ENDMDL
MODEL 9
REMARK VINA RESULT:      -5.7      3.626      7.037
REMARK  4 active torsions:
REMARK  status: ('A' for Active; 'I' for Inactive)
REMARK    1  A    between atoms: O2_2  and  C7_12 
REMARK    2  A    between atoms: O4_4  and  C9_14 
REMARK    3  A    between atoms: O5_5  and  C15_20 
REMARK    4  A    between atoms: C3_8  and  C4_9 
ROOT
ATOM      1  O1  UNK     1      42.111   1.085   9.314  1.00  0.00    -0.309 OA
ATOM      2  O3  UNK     1      38.960   1.237   6.737  1.00  0.00    -0.287 OA
ATOM      3  C1  UNK     1      40.341  -0.081   8.129  1.00  0.00     0.081 A 
ATOM      4  C2  UNK     1      41.426  -0.062   9.003  1.00  0.00     0.095 A 
ATOM      5  C3  UNK     1      41.710   2.275   8.726  1.00  0.00     0.090 A 
ATOM      6  C5  UNK     1      39.905   1.181   7.510  1.00  0.00     0.190 A 
ATOM      7  C6  UNK     1      40.677   2.386   7.875  1.00  0.00     0.094 A 
ATOM      8  C7  UNK     1      39.679  -1.279   7.849  1.00  0.00     0.085 A 
ATOM      9  C8  UNK     1      41.857  -1.244   9.605  1.00  0.00     0.075 A 
ATOM     10  C9  UNK     1      41.200  -2.443   9.329  1.00  0.00     0.071 A 
ATOM     11  C10 UNK     1      40.113  -2.461   8.452  1.00  0.00     0.074 A 
ENDROOT
BRANCH   5  12
ATOM     12  C4  UNK     1      42.510   3.446   9.134  1.00  0.00    -0.002 A 
ATOM     13  C12 UNK     1      41.944   4.439   9.936  1.00  0.00     0.017 A 
ATOM     14  C14 UNK     1      42.701   5.545  10.320  1.00  0.00     0.037 A 
ATOM     15  C15 UNK     1      44.027   5.663   9.904  1.00  0.00     0.065 A 
ATOM     16  C13 UNK     1      44.596   4.674   9.102  1.00  0.00     0.037 A 
ATOM     17  C11 UNK     1      43.839   3.567   8.717  1.00  0.00     0.017 A 
BRANCH  15  18
ATOM     18  O5  UNK     1      44.765   6.743  10.278  1.00  0.00    -0.361 OA
ATOM     19  H10 UNK     1      45.589   6.433  10.693  1.00  0.00     0.217 HD
ENDBRANCH  15  18
ENDBRANCH   5  12
BRANCH   8  20
ATOM     20  O2  UNK     1      38.614  -1.350   7.003  1.00  0.00    -0.360 OA
ATOM     21  H8  UNK     1      38.422  -0.478   6.626  1.00  0.00     0.217 HD
ENDBRANCH   8  20
BRANCH  10  22
ATOM     22  O4  UNK     1      41.619  -3.599   9.914  1.00  0.00    -0.361 OA
ATOM     23  H9  UNK     1      40.972  -4.301   9.726  1.00  0.00     0.217 HD
ENDBRANCH  10  22
TORSDOF 4
ENDMDL
MODEL 10
REMARK VINA RESULT:      -5.7      2.362      7.257
REMARK  4 active torsions:
REMARK  status: ('A' for Active; 'I' for Inactive)
REMARK    1  A    between atoms: O2_2  and  C7_12 
REMARK    2  A    between atoms: O4_4  and  C9_14 
REMARK    3  A    between atoms: O5_5  and  C15_20 
REMARK    4  A    between atoms: C3_8  and  C4_9 
ROOT
ATOM      1  O1  UNK     1      41.596   0.388   8.212  1.00  0.00    -0.309 OA
ATOM      2  O3  UNK     1      41.547  -2.720  10.846  1.00  0.00    -0.287 OA
ATOM      3  C1  UNK     1      40.328  -1.322   9.381  1.00  0.00     0.081 A 
ATOM      4  C2  UNK     1      40.416  -0.254   8.491  1.00  0.00     0.095 A 
ATOM      5  C3  UNK     1      42.749  -0.041   8.853  1.00  0.00     0.090 A 
ATOM      6  C5  UNK     1      41.551  -1.787  10.055  1.00  0.00     0.190 A 
ATOM      7  C6  UNK     1      42.794  -1.062   9.724  1.00  0.00     0.094 A 
ATOM      8  C7  UNK     1      39.100  -1.940   9.626  1.00  0.00     0.085 A 
ATOM      9  C8  UNK     1      39.273   0.205   7.837  1.00  0.00     0.075 A 
ATOM     10  C9  UNK     1      38.043  -0.408   8.078  1.00  0.00     0.071 A 
ATOM     11  C10 UNK     1      37.956  -1.478   8.972  1.00  0.00     0.074 A 
ENDROOT
BRANCH   5  12
ATOM     12  C4  UNK     1      43.960   0.714   8.477  1.00  0.00    -0.002 A 
ATOM     13  C12 UNK     1      45.086   0.691   9.302  1.00  0.00     0.017 A 
ATOM     14  C14 UNK     1      46.230   1.405   8.947  1.00  0.00     0.037 A 
ATOM     15  C15 UNK     1      46.252   2.145   7.764  1.00  0.00     0.065 A 
ATOM     16  C13 UNK     1      45.129   2.171   6.938  1.00  0.00     0.037 A 
ATOM     17  C11 UNK     1      43.985   1.457   7.293  1.00  0.00     0.017 A 
BRANCH  15  18
ATOM     18  O5  UNK     1      47.368   2.843   7.419  1.00  0.00    -0.361 OA
ATOM     19  H10 UNK     1      48.153   2.334   7.688  1.00  0.00     0.217 HD
ENDBRANCH  15  18
ENDBRANCH   5  12
BRANCH   8  20
ATOM     20  O2  UNK     1      38.962  -2.986  10.486  1.00  0.00    -0.360 OA
ATOM     21  H8  UNK     1      38.112  -3.432  10.344  1.00  0.00     0.217 HD
ENDBRANCH   8  20
BRANCH  10  22
ATOM     22  O4  UNK     1      36.924   0.037   7.442  1.00  0.00    -0.361 OA
ATOM     23  H9  UNK     1      36.151  -0.134   8.007  1.00  0.00     0.217 HD
ENDBRANCH  10  22
TORSDOF 4
ENDMDL
MODEL 11
REMARK VINA RESULT:      -5.7      3.626      6.631
REMARK  4 active torsions:
REMARK  status: ('A' for Active; 'I' for Inactive)
REMARK    1  A    between atoms: O2_2  and  C7_12 
REMARK    2  A    between atoms: O4_4  and  C9_14 
REMARK    3  A    between atoms: O5_5  and  C15_20 
REMARK    4  A    between atoms: C3_8  and  C4_9 
ROOT
ATOM      1  O1  UNK     1      41.042   2.072   8.650  1.00  0.00    -0.309 OA
ATOM      2  O3  UNK     1      43.433  -1.067   9.666  1.00  0.00    -0.287 OA
ATOM      3  C1  UNK     1      41.371  -0.331   8.778  1.00  0.00     0.081 A 
ATOM      4  C2  UNK     1      40.605   0.786   8.452  1.00  0.00     0.095 A 
ATOM      5  C3  UNK     1      42.298   2.264   9.207  1.00  0.00     0.090 A 
ATOM      6  C5  UNK     1      42.707  -0.132   9.359  1.00  0.00     0.190 A 
ATOM      7  C6  UNK     1      43.130   1.270   9.555  1.00  0.00     0.094 A 
ATOM      8  C7  UNK     1      40.875  -1.618   8.553  1.00  0.00     0.085 A 
ATOM      9  C8  UNK     1      39.336   0.624   7.898  1.00  0.00     0.075 A 
ATOM     10  C9  UNK     1      38.836  -0.658   7.671  1.00  0.00     0.071 A 
ATOM     11  C10 UNK     1      39.604  -1.778   7.999  1.00  0.00     0.074 A 
ENDROOT
BRANCH   5  12
ATOM     12  C4  UNK     1      42.670   3.683   9.371  1.00  0.00    -0.002 A 
ATOM     13  C12 UNK     1      43.941   4.123   8.996  1.00  0.00     0.017 A 
ATOM     14  C14 UNK     1      44.292   5.464   9.152  1.00  0.00     0.037 A 
ATOM     15  C15 UNK     1      43.374   6.369   9.683  1.00  0.00     0.065 A 
ATOM     16  C13 UNK     1      42.104   5.933  10.060  1.00  0.00     0.037 A 
ATOM     17  C11 UNK     1      41.751   4.592   9.904  1.00  0.00     0.017 A 
BRANCH  15  18
ATOM     18  O5  UNK     1      43.717   7.677   9.836  1.00  0.00    -0.361 OA
ATOM     19  H10 UNK     1      44.073   7.806  10.732  1.00  0.00     0.217 HD
ENDBRANCH  15  18
ENDBRANCH   5  12
BRANCH   8  20
ATOM     20  O2  UNK     1      41.584  -2.741   8.853  1.00  0.00    -0.360 OA
ATOM     21  H8  UNK     1      42.315  -2.531   9.455  1.00  0.00     0.217 HD
ENDBRANCH   8  20
BRANCH  10  22
ATOM     22  O4  UNK     1      37.597  -0.820   7.130  1.00  0.00    -0.361 OA
ATOM     23  H9  UNK     1      37.039  -1.309   7.760  1.00  0.00     0.217 HD
ENDBRANCH  10  22
TORSDOF 4
ENDMDL
MODEL 12
REMARK VINA RESULT:      -5.7      7.660     10.796
REMARK  4 active torsions:
REMARK  status: ('A' for Active; 'I' for Inactive)
REMARK    1  A    between atoms: O2_2  and  C7_12 
REMARK    2  A    between atoms: O4_4  and  C9_14 
REMARK    3  A    between atoms: O5_5  and  C15_20 
REMARK    4  A    between atoms: C3_8  and  C4_9 
ROOT
ATOM      1  O1  UNK     1      37.942  -4.950   5.670  1.00  0.00    -0.309 OA
ATOM      2  O3  UNK     1      37.345  -6.145   9.519  1.00  0.00    -0.287 OA
ATOM      3  C1  UNK     1      37.853  -4.382   8.030  1.00  0.00     0.081 A 
ATOM      4  C2  UNK     1      38.044  -4.041   6.693  1.00  0.00     0.095 A 
ATOM      5  C3  UNK     1      37.645  -6.267   5.985  1.00  0.00     0.090 A 
ATOM      6  C5  UNK     1      37.528  -5.777   8.368  1.00  0.00     0.190 A 
ATOM      7  C6  UNK     1      37.433  -6.717   7.232  1.00  0.00     0.094 A 
ATOM      8  C7  UNK     1      37.967  -3.414   9.030  1.00  0.00     0.085 A 
ATOM      9  C8  UNK     1      38.351  -2.725   6.346  1.00  0.00     0.075 A 
ATOM     10  C9  UNK     1      38.467  -1.754   7.341  1.00  0.00     0.071 A 
ATOM     11  C10 UNK     1      38.276  -2.098   8.681  1.00  0.00     0.074 A 
ENDROOT
BRANCH   5  12
ATOM     12  C4  UNK     1      37.555  -7.158   4.812  1.00  0.00    -0.002 A 
ATOM     13  C12 UNK     1      38.541  -8.120   4.583  1.00  0.00     0.017 A 
ATOM     14  C14 UNK     1      38.455  -8.961   3.473  1.00  0.00     0.037 A 
ATOM     15  C15 UNK     1      37.382  -8.843   2.589  1.00  0.00     0.065 A 
ATOM     16  C13 UNK     1      36.396  -7.883   2.814  1.00  0.00     0.037 A 
ATOM     17  C11 UNK     1      36.481  -7.042   3.924  1.00  0.00     0.017 A 
BRANCH  15  18
ATOM     18  O5  UNK     1      37.300  -9.663   1.507  1.00  0.00    -0.361 OA
ATOM     19  H10 UNK     1      37.655 -10.537   1.746  1.00  0.00     0.217 HD
ENDBRANCH  15  18
ENDBRANCH   5  12
BRANCH   8  20
ATOM     20  O2  UNK     1      37.790  -3.697  10.351  1.00  0.00    -0.360 OA
ATOM     21  H8  UNK     1      38.581  -4.124  10.715  1.00  0.00     0.217 HD
ENDBRANCH   8  20
BRANCH  10  22
ATOM     22  O4  UNK     1      38.766  -0.469   7.006  1.00  0.00    -0.361 OA
ATOM     23  H9  UNK     1      38.000   0.096   7.205  1.00  0.00     0.217 HD
ENDBRANCH  10  22
TORSDOF 4
ENDMDL
MODEL 13
REMARK VINA RESULT:      -5.7      2.740      6.703
REMARK  4 active torsions:
REMARK  status: ('A' for Active; 'I' for Inactive)
REMARK    1  A    between atoms: O2_2  and  C7_12 
REMARK    2  A    between atoms: O4_4  and  C9_14 
REMARK    3  A    between atoms: O5_5  and  C15_20 
REMARK    4  A    between atoms: C3_8  and  C4_9 
ROOT
ATOM      1  O1  UNK     1      42.271   2.814   8.125  1.00  0.00    -0.309 OA
ATOM      2  O3  UNK     1      43.037  -0.951   9.482  1.00  0.00    -0.287 OA
ATOM      3  C1  UNK     1      41.559   0.502   8.346  1.00  0.00     0.081 A 
ATOM      4  C2  UNK     1      41.361   1.810   7.909  1.00  0.00     0.095 A 
ATOM      5  C3  UNK     1      43.434   2.512   8.817  1.00  0.00     0.090 A 
ATOM      6  C5  UNK     1      42.797   0.176   9.072  1.00  0.00     0.190 A 
ATOM      7  C6  UNK     1      43.743   1.291   9.282  1.00  0.00     0.094 A 
ATOM      8  C7  UNK     1      40.598  -0.480   8.097  1.00  0.00     0.085 A 
ATOM      9  C8  UNK     1      40.197   2.145   7.217  1.00  0.00     0.075 A 
ATOM     10  C9  UNK     1      39.234   1.168   6.965  1.00  0.00     0.071 A 
ATOM     11  C10 UNK     1      39.434  -0.143   7.405  1.00  0.00     0.074 A 
ENDROOT
BRANCH   5  12
ATOM     12  C4  UNK     1      44.344   3.662   8.989  1.00  0.00    -0.002 A 
ATOM     13  C12 UNK     1      45.723   3.495   8.838  1.00  0.00     0.017 A 
ATOM     14  C14 UNK     1      46.582   4.581   9.002  1.00  0.00     0.037 A 
ATOM     15  C15 UNK     1      46.066   5.838   9.317  1.00  0.00     0.065 A 
ATOM     16  C13 UNK     1      44.690   6.008   9.469  1.00  0.00     0.037 A 
ATOM     17  C11 UNK     1      43.830   4.923   9.306  1.00  0.00     0.017 A 
BRANCH  15  18
ATOM     18  O5  UNK     1      46.905   6.897   9.477  1.00  0.00    -0.361 OA
ATOM     19  H10 UNK     1      47.162   7.231   8.599  1.00  0.00     0.217 HD
ENDBRANCH  15  18
ENDBRANCH   5  12
BRANCH   8  20
ATOM     20  O2  UNK     1      40.745  -1.772   8.503  1.00  0.00    -0.360 OA
ATOM     21  H8  UNK     1      41.680  -2.028   8.490  1.00  0.00     0.217 HD
ENDBRANCH   8  20
BRANCH  10  22
ATOM     22  O4  UNK     1      38.097   1.491   6.290  1.00  0.00    -0.361 OA
ATOM     23  H9  UNK     1      37.924   2.442   6.400  1.00  0.00     0.217 HD
ENDBRANCH  10  22
TORSDOF 4
ENDMDL
MODEL 14
REMARK VINA RESULT:      -5.7      5.910      9.377
REMARK  4 active torsions:
REMARK  status: ('A' for Active; 'I' for Inactive)
REMARK    1  A    between atoms: O2_2  and  C7_12 
REMARK    2  A    between atoms: O4_4  and  C9_14 
REMARK    3  A    between atoms: O5_5  and  C15_20 
REMARK    4  A    between atoms: C3_8  and  C4_9 
ROOT
ATOM      1  O1  UNK     1      38.345  -0.884   7.653  1.00  0.00    -0.309 OA
ATOM      2  O3  UNK     1      34.445  -1.519   8.647  1.00  0.00    -0.287 OA
ATOM      3  C1  UNK     1      36.370  -2.292   7.515  1.00  0.00     0.081 A 
ATOM      4  C2  UNK     1      37.701  -2.014   7.213  1.00  0.00     0.095 A 
ATOM      5  C3  UNK     1      37.633   0.023   8.424  1.00  0.00     0.090 A 
ATOM      6  C5  UNK     1      35.615  -1.337   8.342  1.00  0.00     0.190 A 
ATOM      7  C6  UNK     1      36.351  -0.136   8.788  1.00  0.00     0.094 A 
ATOM      8  C7  UNK     1      35.766  -3.458   7.041  1.00  0.00     0.085 A 
ATOM      9  C8  UNK     1      38.440  -2.903   6.433  1.00  0.00     0.075 A 
ATOM     10  C9  UNK     1      37.842  -4.070   5.957  1.00  0.00     0.071 A 
ATOM     11  C10 UNK     1      36.507  -4.347   6.260  1.00  0.00     0.074 A 
ENDROOT
BRANCH   5  12
ATOM     12  C4  UNK     1      38.421   1.197   8.847  1.00  0.00    -0.002 A 
ATOM     13  C12 UNK     1      38.250   1.734  10.125  1.00  0.00     0.017 A 
ATOM     14  C14 UNK     1      38.994   2.844  10.524  1.00  0.00     0.037 A 
ATOM     15  C15 UNK     1      39.912   3.421   9.647  1.00  0.00     0.065 A 
ATOM     16  C13 UNK     1      40.085   2.888   8.370  1.00  0.00     0.037 A 
ATOM     17  C11 UNK     1      39.341   1.778   7.970  1.00  0.00     0.017 A 
BRANCH  15  18
ATOM     18  O5  UNK     1      40.637   4.505  10.036  1.00  0.00    -0.361 OA
ATOM     19  H10 UNK     1      40.031   5.251  10.189  1.00  0.00     0.217 HD
ENDBRANCH  15  18
ENDBRANCH   5  12
BRANCH   8  20
ATOM     20  O2  UNK     1      34.469  -3.776   7.308  1.00  0.00    -0.360 OA
ATOM     21  H8  UNK     1      34.179  -3.354   8.132  1.00  0.00     0.217 HD
ENDBRANCH   8  20
BRANCH  10  22
ATOM     22  O4  UNK     1      38.560  -4.941   5.195  1.00  0.00    -0.361 OA
ATOM     23  H9  UNK     1      38.173  -4.973   4.303  1.00  0.00     0.217 HD
ENDBRANCH  10  22
TORSDOF 4
ENDMDL
MODEL 15
REMARK VINA RESULT:      -5.6      6.567     10.326
REMARK  4 active torsions:
REMARK  status: ('A' for Active; 'I' for Inactive)
REMARK    1  A    between atoms: O2_2  and  C7_12 
REMARK    2  A    between atoms: O4_4  and  C9_14 
REMARK    3  A    between atoms: O5_5  and  C15_20 
REMARK    4  A    between atoms: C3_8  and  C4_9 
ROOT
ATOM      1  O1  UNK     1      38.521  -4.418   5.971  1.00  0.00    -0.309 OA
ATOM      2  O3  UNK     1      34.988  -2.572   6.818  1.00  0.00    -0.287 OA
ATOM      3  C1  UNK     1      37.346  -2.547   6.981  1.00  0.00     0.081 A 
ATOM      4  C2  UNK     1      38.516  -3.229   6.658  1.00  0.00     0.095 A 
ATOM      5  C3  UNK     1      37.305  -4.965   5.591  1.00  0.00     0.090 A 
ATOM      6  C5  UNK     1      36.054  -3.119   6.570  1.00  0.00     0.190 A 
ATOM      7  C6  UNK     1      36.112  -4.400   5.837  1.00  0.00     0.094 A 
ATOM      8  C7  UNK     1      37.401  -1.340   7.680  1.00  0.00     0.085 A 
ATOM      9  C8  UNK     1      39.754  -2.708   7.033  1.00  0.00     0.075 A 
ATOM     10  C9  UNK     1      39.816  -1.502   7.733  1.00  0.00     0.071 A 
ATOM     11  C10 UNK     1      38.641  -0.819   8.056  1.00  0.00     0.074 A 
ENDROOT
BRANCH   5  12
ATOM     12  C4  UNK     1      37.424  -6.239   4.855  1.00  0.00    -0.002 A 
ATOM     13  C12 UNK     1      36.699  -6.441   3.678  1.00  0.00     0.017 A 
ATOM     14  C14 UNK     1      36.813  -7.645   2.984  1.00  0.00     0.037 A 
ATOM     15  C15 UNK     1      37.651  -8.651   3.463  1.00  0.00     0.065 A 
ATOM     16  C13 UNK     1      38.376  -8.453   4.638  1.00  0.00     0.037 A 
ATOM     17  C11 UNK     1      38.263  -7.249   5.333  1.00  0.00     0.017 A 
BRANCH  15  18
ATOM     18  O5  UNK     1      37.760  -9.826   2.786  1.00  0.00    -0.361 OA
ATOM     19  H10 UNK     1      37.621  -9.657   1.838  1.00  0.00     0.217 HD
ENDBRANCH  15  18
ENDBRANCH   5  12
BRANCH   8  20
ATOM     20  O2  UNK     1      36.287  -0.634   8.019  1.00  0.00    -0.360 OA
ATOM     21  H8  UNK     1      35.611  -1.224   8.387  1.00  0.00     0.217 HD
ENDBRANCH   8  20
BRANCH  10  22
ATOM     22  O4  UNK     1      41.022  -0.990   8.101  1.00  0.00    -0.361 OA
ATOM     23  H9  UNK     1      41.077  -0.066   7.801  1.00  0.00     0.217 HD
ENDBRANCH  10  22
TORSDOF 4
ENDMDL
MODEL 16
REMARK VINA RESULT:      -5.6      2.546      3.368
REMARK  4 active torsions:
REMARK  status: ('A' for Active; 'I' for Inactive)
REMARK    1  A    between atoms: O2_2  and  C7_12 
REMARK    2  A    between atoms: O4_4  and  C9_14 
REMARK    3  A    between atoms: O5_5  and  C15_20 
REMARK    4  A    between atoms: C3_8  and  C4_9 
ROOT
ATOM      1  O1  UNK     1      42.681   3.208   8.714  1.00  0.00    -0.309 OA
ATOM      2  O3  UNK     1      46.078   1.598   7.143  1.00  0.00    -0.287 OA
ATOM      3  C1  UNK     1      45.087   3.334   8.403  1.00  0.00     0.081 A 
ATOM      4  C2  UNK     1      43.889   3.829   8.912  1.00  0.00     0.095 A 
ATOM      5  C3  UNK     1      42.654   2.040   7.967  1.00  0.00     0.090 A 
ATOM      6  C5  UNK     1      45.064   2.090   7.617  1.00  0.00     0.190 A 
ATOM      7  C6  UNK     1      43.741   1.461   7.430  1.00  0.00     0.094 A 
ATOM      8  C7  UNK     1      46.287   4.008   8.637  1.00  0.00     0.085 A 
ATOM      9  C8  UNK     1      43.883   5.006   9.662  1.00  0.00     0.075 A 
ATOM     10  C9  UNK     1      45.079   5.683   9.899  1.00  0.00     0.071 A 
ATOM     11  C10 UNK     1      46.279   5.186   9.386  1.00  0.00     0.074 A 
ENDROOT
BRANCH   5  12
ATOM     12  C4  UNK     1      41.308   1.453   7.820  1.00  0.00    -0.002 A 
ATOM     13  C12 UNK     1      41.067   0.140   8.230  1.00  0.00     0.017 A 
ATOM     14  C14 UNK     1      39.795  -0.415   8.091  1.00  0.00     0.037 A 
ATOM     15  C15 UNK     1      38.759   0.342   7.541  1.00  0.00     0.065 A 
ATOM     16  C13 UNK     1      38.997   1.653   7.130  1.00  0.00     0.037 A 
ATOM     17  C11 UNK     1      40.269   2.209   7.270  1.00  0.00     0.017 A 
BRANCH  15  18
ATOM     18  O5  UNK     1      37.519  -0.200   7.405  1.00  0.00    -0.361 OA
ATOM     19  H10 UNK     1      37.234  -0.105   6.479  1.00  0.00     0.217 HD
ENDBRANCH  15  18
ENDBRANCH   5  12
BRANCH   8  20
ATOM     20  O2  UNK     1      47.484   3.565   8.161  1.00  0.00    -0.360 OA
ATOM     21  H8  UNK     1      47.358   3.062   7.342  1.00  0.00     0.217 HD
ENDBRANCH   8  20
BRANCH  10  22
ATOM     22  O4  UNK     1      45.077   6.832  10.630  1.00  0.00    -0.361 OA
ATOM     23  H9  UNK     1      44.167   7.172  10.681  1.00  0.00     0.217 HD
ENDBRANCH  10  22
TORSDOF 4
ENDMDL
MODEL 17
REMARK VINA RESULT:      -5.6      2.307      4.459
REMARK  4 active torsions:
REMARK  status: ('A' for Active; 'I' for Inactive)
REMARK    1  A    between atoms: O2_2  and  C7_12 
REMARK    2  A    between atoms: O4_4  and  C9_14 
REMARK    3  A    between atoms: O5_5  and  C15_20 
REMARK    4  A    between atoms: C3_8  and  C4_9 
ROOT
ATOM      1  O1  UNK     1      47.975   1.650   9.540  1.00  0.00    -0.309 OA
ATOM      2  O3  UNK     1      49.753   3.990   6.719  1.00  0.00    -0.287 OA
ATOM      3  C1  UNK     1      49.937   2.870   8.791  1.00  0.00     0.081 A 
ATOM      4  C2  UNK     1      49.270   2.069   9.715  1.00  0.00     0.095 A 
ATOM      5  C3  UNK     1      47.300   2.050   8.397  1.00  0.00     0.090 A 
ATOM      6  C5  UNK     1      49.228   3.289   7.572  1.00  0.00     0.190 A 
ATOM      7  C6  UNK     1      47.836   2.815   7.432  1.00  0.00     0.094 A 
ATOM      8  C7  UNK     1      51.256   3.266   9.021  1.00  0.00     0.085 A 
ATOM      9  C8  UNK     1      49.920   1.656  10.878  1.00  0.00     0.075 A 
ATOM     10  C9  UNK     1      51.238   2.049  11.113  1.00  0.00     0.071 A 
ATOM     11  C10 UNK     1      51.905   2.853  10.186  1.00  0.00     0.074 A 
ENDROOT
BRANCH   5  12
ATOM     12  C4  UNK     1      45.918   1.540   8.306  1.00  0.00    -0.002 A 
ATOM     13  C12 UNK     1      45.149   1.793   7.168  1.00  0.00     0.017 A 
ATOM     14  C14 UNK     1      43.843   1.311   7.084  1.00  0.00     0.037 A 
ATOM     15  C15 UNK     1      43.301   0.574   8.137  1.00  0.00     0.065 A 
ATOM     16  C13 UNK     1      44.066   0.320   9.275  1.00  0.00     0.037 A 
ATOM     17  C11 UNK     1      45.372   0.801   9.360  1.00  0.00     0.017 A 
BRANCH  15  18
ATOM     18  O5  UNK     1      42.027   0.105   8.054  1.00  0.00    -0.361 OA
ATOM     19  H10 UNK     1      41.620   0.141   8.938  1.00  0.00     0.217 HD
ENDBRANCH  15  18
ENDBRANCH   5  12
BRANCH   8  20
ATOM     20  O2  UNK     1      51.951   4.048   8.150  1.00  0.00    -0.360 OA
ATOM     21  H8  UNK     1      52.792   3.628   7.913  1.00  0.00     0.217 HD
ENDBRANCH   8  20
BRANCH  10  22
ATOM     22  O4  UNK     1      51.875   1.647  12.247  1.00  0.00    -0.361 OA
ATOM     23  H9  UNK     1      52.249   2.428  12.692  1.00  0.00     0.217 HD
ENDBRANCH  10  22
TORSDOF 4
ENDMDL
MODEL 18
REMARK VINA RESULT:      -5.6      5.715      8.514
REMARK  4 active torsions:
REMARK  status: ('A' for Active; 'I' for Inactive)
REMARK    1  A    between atoms: O2_2  and  C7_12 
REMARK    2  A    between atoms: O4_4  and  C9_14 
REMARK    3  A    between atoms: O5_5  and  C15_20 
REMARK    4  A    between atoms: C3_8  and  C4_9 
ROOT
ATOM      1  O1  UNK     1      38.905  -1.124   8.064  1.00  0.00    -0.309 OA
ATOM      2  O3  UNK     1      37.581  -3.402  11.171  1.00  0.00    -0.287 OA
ATOM      3  C1  UNK     1      38.060  -3.257   8.862  1.00  0.00     0.081 A 
ATOM      4  C2  UNK     1      38.523  -2.424   7.846  1.00  0.00     0.095 A 
ATOM      5  C3  UNK     1      38.817  -0.617   9.352  1.00  0.00     0.090 A 
ATOM      6  C5  UNK     1      37.975  -2.726  10.232  1.00  0.00     0.190 A 
ATOM      7  C6  UNK     1      38.395  -1.322  10.414  1.00  0.00     0.094 A 
ATOM      8  C7  UNK     1      37.686  -4.573   8.582  1.00  0.00     0.085 A 
ATOM      9  C8  UNK     1      38.615  -2.903   6.539  1.00  0.00     0.075 A 
ATOM     10  C9  UNK     1      38.243  -4.216   6.254  1.00  0.00     0.071 A 
ATOM     11  C10 UNK     1      37.778  -5.050   7.274  1.00  0.00     0.074 A 
ENDROOT
BRANCH   5  12
ATOM     12  C4  UNK     1      39.257   0.786   9.475  1.00  0.00    -0.002 A 
ATOM     13  C12 UNK     1      38.877   1.546  10.584  1.00  0.00     0.017 A 
ATOM     14  C14 UNK     1      39.293   2.873  10.700  1.00  0.00     0.037 A 
ATOM     15  C15 UNK     1      40.089   3.444   9.707  1.00  0.00     0.065 A 
ATOM     16  C13 UNK     1      40.468   2.689   8.598  1.00  0.00     0.037 A 
ATOM     17  C11 UNK     1      40.054   1.362   8.482  1.00  0.00     0.017 A 
BRANCH  15  18
ATOM     18  O5  UNK     1      40.493   4.738   9.820  1.00  0.00    -0.361 OA
ATOM     19  H10 UNK     1      40.264   5.063  10.708  1.00  0.00     0.217 HD
ENDBRANCH  15  18
ENDBRANCH   5  12
BRANCH   8  20
ATOM     20  O2  UNK     1      37.229  -5.426   9.540  1.00  0.00    -0.360 OA
ATOM     21  H8  UNK     1      37.559  -5.165  10.413  1.00  0.00     0.217 HD
ENDBRANCH   8  20
BRANCH  10  22
ATOM     22  O4  UNK     1      38.332  -4.687   4.979  1.00  0.00    -0.361 OA
ATOM     23  H9  UNK     1      37.434  -4.817   4.627  1.00  0.00     0.217 HD
ENDBRANCH  10  22
TORSDOF 4
ENDMDL
MODEL 19
REMARK VINA RESULT:      -5.5      2.528      7.073
REMARK  4 active torsions:
REMARK  status: ('A' for Active; 'I' for Inactive)
REMARK    1  A    between atoms: O2_2  and  C7_12 
REMARK    2  A    between atoms: O4_4  and  C9_14 
REMARK    3  A    between atoms: O5_5  and  C15_20 
REMARK    4  A    between atoms: C3_8  and  C4_9 
ROOT
ATOM      1  O1  UNK     1      44.303   2.524   8.261  1.00  0.00    -0.309 OA
ATOM      2  O3  UNK     1      42.362   5.522  10.222  1.00  0.00    -0.287 OA
ATOM      3  C1  UNK     1      42.234   3.407   9.177  1.00  0.00     0.081 A 
ATOM      4  C2  UNK     1      42.958   2.420   8.513  1.00  0.00     0.095 A 
ATOM      5  C3  UNK     1      44.966   3.668   8.680  1.00  0.00     0.090 A 
ATOM      6  C5  UNK     1      42.935   4.618   9.632  1.00  0.00     0.190 A 
ATOM      7  C6  UNK     1      44.381   4.684   9.335  1.00  0.00     0.094 A 
ATOM      8  C7  UNK     1      40.866   3.246   9.407  1.00  0.00     0.085 A 
ATOM      9  C8  UNK     1      42.318   1.261   8.073  1.00  0.00     0.075 A 
ATOM     10  C9  UNK     1      40.951   1.095   8.300  1.00  0.00     0.071 A 
ATOM     11  C10 UNK     1      40.226   2.087   8.965  1.00  0.00     0.074 A 
ENDROOT
BRANCH   5  12
ATOM     12  C4  UNK     1      46.408   3.675   8.364  1.00  0.00    -0.002 A 
ATOM     13  C12 UNK     1      47.284   4.475   9.101  1.00  0.00     0.017 A 
ATOM     14  C14 UNK     1      48.646   4.481   8.801  1.00  0.00     0.037 A 
ATOM     15  C15 UNK     1      49.137   3.688   7.764  1.00  0.00     0.065 A 
ATOM     16  C13 UNK     1      48.265   2.889   7.025  1.00  0.00     0.037 A 
ATOM     17  C11 UNK     1      46.902   2.882   7.325  1.00  0.00     0.017 A 
BRANCH  15  18
ATOM     18  O5  UNK     1      50.466   3.696   7.472  1.00  0.00    -0.361 OA
ATOM     19  H10 UNK     1      50.877   2.902   7.855  1.00  0.00     0.217 HD
ENDBRANCH  15  18
ENDBRANCH   5  12
BRANCH   8  20
ATOM     20  O2  UNK     1      40.114   4.181  10.051  1.00  0.00    -0.360 OA
ATOM     21  H8  UNK     1      40.543   5.050  10.009  1.00  0.00     0.217 HD
ENDBRANCH   8  20
BRANCH  10  22
ATOM     22  O4  UNK     1      40.322  -0.034   7.872  1.00  0.00    -0.361 OA
ATOM     23  H9  UNK     1      40.511  -0.161   6.926  1.00  0.00     0.217 HD
ENDBRANCH  10  22
TORSDOF 4
ENDMDL
MODEL 20
REMARK VINA RESULT:      -5.4      4.040      8.590
REMARK  4 active torsions:
REMARK  status: ('A' for Active; 'I' for Inactive)
REMARK    1  A    between atoms: O2_2  and  C7_12 
REMARK    2  A    between atoms: O4_4  and  C9_14 
REMARK    3  A    between atoms: O5_5  and  C15_20 
REMARK    4  A    between atoms: C3_8  and  C4_9 
ROOT
ATOM      1  O1  UNK     1      39.549  -0.416   7.747  1.00  0.00    -0.309 OA
ATOM      2  O3  UNK     1      35.692  -0.035   9.001  1.00  0.00    -0.287 OA
ATOM      3  C1  UNK     1      37.294  -1.314   7.825  1.00  0.00     0.081 A 
ATOM      4  C2  UNK     1      38.628  -1.382   7.429  1.00  0.00     0.095 A 
ATOM      5  C3  UNK     1      39.130   0.680   8.486  1.00  0.00     0.090 A 
ATOM      6  C5  UNK     1      36.846  -0.158   8.618  1.00  0.00     0.190 A 
ATOM      7  C6  UNK     1      37.875   0.855   8.931  1.00  0.00     0.094 A 
ATOM      8  C7  UNK     1      36.400  -2.327   7.474  1.00  0.00     0.085 A 
ATOM      9  C8  UNK     1      39.078  -2.468   6.678  1.00  0.00     0.075 A 
ATOM     10  C9  UNK     1      38.189  -3.483   6.325  1.00  0.00     0.071 A 
ATOM     11  C10 UNK     1      36.852  -3.413   6.722  1.00  0.00     0.074 A 
ENDROOT
BRANCH   5  12
ATOM     12  C4  UNK     1      40.200   1.654   8.775  1.00  0.00    -0.002 A 
ATOM     13  C12 UNK     1      41.518   1.380   8.402  1.00  0.00     0.017 A 
ATOM     14  C14 UNK     1      42.529   2.300   8.676  1.00  0.00     0.037 A 
ATOM     15  C15 UNK     1      42.227   3.498   9.325  1.00  0.00     0.065 A 
ATOM     16  C13 UNK     1      40.912   3.774   9.700  1.00  0.00     0.037 A 
ATOM     17  C11 UNK     1      39.900   2.854   9.426  1.00  0.00     0.017 A 
BRANCH  15  18
ATOM     18  O5  UNK     1      43.214   4.394   9.593  1.00  0.00    -0.361 OA
ATOM     19  H10 UNK     1      43.800   4.023  10.275  1.00  0.00     0.217 HD
ENDBRANCH  15  18
ENDBRANCH   5  12
BRANCH   8  20
ATOM     20  O2  UNK     1      35.087  -2.307   7.836  1.00  0.00    -0.360 OA
ATOM     21  H8  UNK     1      34.822  -1.414   8.104  1.00  0.00     0.217 HD
ENDBRANCH   8  20
BRANCH  10  22
ATOM     22  O4  UNK     1      38.625  -4.545   5.592  1.00  0.00    -0.361 OA
ATOM     23  H9  UNK     1      38.112  -4.591   4.767  1.00  0.00     0.217 HD
ENDBRANCH  10  22
TORSDOF 4
ENDMDL
