MODEL 1
REMARK VINA RESULT:      -7.9      0.000      0.000
REMARK  4 active torsions:
REMARK  status: ('A' for Active; 'I' for Inactive)
REMARK    1  A    between atoms: O2_2  and  C7_12 
REMARK    2  A    between atoms: O4_4  and  C9_14 
REMARK    3  A    between atoms: O5_5  and  C15_20 
REMARK    4  A    between atoms: C3_8  and  C4_9 
ROOT
ATOM      1  O1  UNK     1      39.725  15.571  -0.053  1.00  0.00    -0.309 OA
ATOM      2  O3  UNK     1      41.134  16.575  -3.742  1.00  0.00    -0.287 OA
ATOM      3  C1  UNK     1      39.998  17.253  -1.784  1.00  0.00     0.081 A 
ATOM      4  C2  UNK     1      39.543  16.844  -0.532  1.00  0.00     0.095 A 
ATOM      5  C3  UNK     1      40.383  14.651  -0.856  1.00  0.00     0.090 A 
ATOM      6  C5  UNK     1      40.706  16.283  -2.634  1.00  0.00     0.190 A 
ATOM      7  C6  UNK     1      40.873  14.926  -2.075  1.00  0.00     0.094 A 
ATOM      8  C7  UNK     1      39.787  18.563  -2.220  1.00  0.00     0.085 A 
ATOM      9  C8  UNK     1      38.872  17.745   0.294  1.00  0.00     0.075 A 
ATOM     10  C9  UNK     1      38.657  19.054  -0.136  1.00  0.00     0.071 A 
ATOM     11  C10 UNK     1      39.113  19.463  -1.392  1.00  0.00     0.074 A 
ENDROOT
BRANCH   5  12
ATOM     12  C4  UNK     1      40.528  13.316  -0.242  1.00  0.00    -0.002 A 
ATOM     13  C12 UNK     1      40.152  13.109   1.086  1.00  0.00     0.017 A 
ATOM     14  C14 UNK     1      40.290  11.848   1.665  1.00  0.00     0.037 A 
ATOM     15  C15 UNK     1      40.806  10.789   0.918  1.00  0.00     0.065 A 
ATOM     16  C13 UNK     1      41.183  10.993  -0.409  1.00  0.00     0.037 A 
ATOM     17  C11 UNK     1      41.045  12.254  -0.989  1.00  0.00     0.017 A 
BRANCH  15  18
ATOM     18  O5  UNK     1      40.941   9.560   1.484  1.00  0.00    -0.361 OA
ATOM     19  H10 UNK     1      40.180   9.396   2.068  1.00  0.00     0.217 HD
ENDBRANCH  15  18
ENDBRANCH   5  12
BRANCH   8  20
ATOM     20  O2  UNK     1      40.212  19.012  -3.433  1.00  0.00    -0.360 OA
ATOM     21  H8  UNK     1      39.635  18.680  -4.139  1.00  0.00     0.217 HD
ENDBRANCH   8  20
BRANCH  10  22
ATOM     22  O4  UNK     1      38.002  19.936   0.668  1.00  0.00    -0.361 OA
ATOM     23  H9  UNK     1      38.421  20.810   0.586  1.00  0.00     0.217 HD
ENDBRANCH  10  22
TORSDOF 4
ENDMDL
MODEL 2
REMARK VINA RESULT:      -6.8      1.248      3.000
REMARK  4 active torsions:
REMARK  status: ('A' for Active; 'I' for Inactive)
REMARK    1  A    between atoms: O2_2  and  C7_12 
REMARK    2  A    between atoms: O4_4  and  C9_14 
REMARK    3  A    between atoms: O5_5  and  C15_20 
REMARK    4  A    between atoms: C3_8  and  C4_9 
ROOT
ATOM      1  O1  UNK     1      40.599  15.175  -1.894  1.00  0.00    -0.309 OA
ATOM      2  O3  UNK     1      38.877  18.079   0.386  1.00  0.00    -0.287 OA
ATOM      3  C1  UNK     1      39.862  17.479  -1.676  1.00  0.00     0.081 A 
ATOM      4  C2  UNK     1      40.441  16.440  -2.402  1.00  0.00     0.095 A 
ATOM      5  C3  UNK     1      40.171  14.924  -0.599  1.00  0.00     0.090 A 
ATOM      6  C5  UNK     1      39.397  17.215  -0.305  1.00  0.00     0.190 A 
ATOM      7  C6  UNK     1      39.592  15.839   0.196  1.00  0.00     0.094 A 
ATOM      8  C7  UNK     1      39.725  18.747  -2.244  1.00  0.00     0.085 A 
ATOM      9  C8  UNK     1      40.888  16.663  -3.704  1.00  0.00     0.075 A 
ATOM     10  C9  UNK     1      40.754  17.928  -4.276  1.00  0.00     0.071 A 
ATOM     11  C10 UNK     1      40.174  18.969  -3.547  1.00  0.00     0.074 A 
ENDROOT
BRANCH   5  12
ATOM     12  C4  UNK     1      40.383  13.532  -0.156  1.00  0.00    -0.002 A 
ATOM     13  C12 UNK     1      40.794  12.559  -1.070  1.00  0.00     0.017 A 
ATOM     14  C14 UNK     1      40.993  11.244  -0.651  1.00  0.00     0.037 A 
ATOM     15  C15 UNK     1      40.783  10.897   0.684  1.00  0.00     0.065 A 
ATOM     16  C13 UNK     1      40.372  11.866   1.599  1.00  0.00     0.037 A 
ATOM     17  C11 UNK     1      40.172  13.182   1.181  1.00  0.00     0.017 A 
BRANCH  15  18
ATOM     18  O5  UNK     1      40.977   9.614   1.092  1.00  0.00    -0.361 OA
ATOM     19  H10 UNK     1      41.180   9.614   2.044  1.00  0.00     0.217 HD
ENDBRANCH  15  18
ENDBRANCH   5  12
BRANCH   8  20
ATOM     20  O2  UNK     1      39.166  19.795  -1.577  1.00  0.00    -0.360 OA
ATOM     21  H8  UNK     1      39.648  19.968  -0.753  1.00  0.00     0.217 HD
ENDBRANCH   8  20
BRANCH  10  22
ATOM     22  O4  UNK     1      41.189  18.150  -5.547  1.00  0.00    -0.361 OA
ATOM     23  H9  UNK     1      42.100  17.818  -5.631  1.00  0.00     0.217 HD
ENDBRANCH  10  22
TORSDOF 4
ENDMDL
MODEL 3
REMARK VINA RESULT:      -6.6      1.477      6.647
REMARK  4 active torsions:
REMARK  status: ('A' for Active; 'I' for Inactive)
REMARK    1  A    between atoms: O2_2  and  C7_12 
REMARK    2  A    between atoms: O4_4  and  C9_14 
REMARK    3  A    between atoms: O5_5  and  C15_20 
REMARK    4  A    between atoms: C3_8  and  C4_9 
ROOT
ATOM      1  O1  UNK     1      39.636  14.631   0.108  1.00  0.00    -0.309 OA
ATOM      2  O3  UNK     1      42.238  13.272  -2.717  1.00  0.00    -0.287 OA
ATOM      3  C1  UNK     1      40.908  12.785  -0.826  1.00  0.00     0.081 A 
ATOM      4  C2  UNK     1      40.022  13.314   0.110  1.00  0.00     0.095 A 
ATOM      5  C3  UNK     1      40.160  15.471  -0.863  1.00  0.00     0.090 A 
ATOM      6  C5  UNK     1      41.458  13.670  -1.864  1.00  0.00     0.190 A 
ATOM      7  C6  UNK     1      41.015  15.079  -1.821  1.00  0.00     0.094 A 
ATOM      8  C7  UNK     1      41.264  11.435  -0.777  1.00  0.00     0.085 A 
ATOM      9  C8  UNK     1      39.484  12.496   1.103  1.00  0.00     0.075 A 
ATOM     10  C9  UNK     1      39.837  11.147   1.156  1.00  0.00     0.071 A 
ATOM     11  C10 UNK     1      40.726  10.618   0.218  1.00  0.00     0.074 A 
ENDROOT
BRANCH   5  12
ATOM     12  C4  UNK     1      39.676  16.863  -0.776  1.00  0.00    -0.002 A 
ATOM     13  C12 UNK     1      40.019  17.789  -1.764  1.00  0.00     0.017 A 
ATOM     14  C14 UNK     1      39.561  19.104  -1.680  1.00  0.00     0.037 A 
ATOM     15  C15 UNK     1      38.759  19.498  -0.609  1.00  0.00     0.065 A 
ATOM     16  C13 UNK     1      38.416  18.576   0.380  1.00  0.00     0.037 A 
ATOM     17  C11 UNK     1      38.872  17.261   0.297  1.00  0.00     0.017 A 
BRANCH  15  18
ATOM     18  O5  UNK     1      38.314  20.781  -0.528  1.00  0.00    -0.361 OA
ATOM     19  H10 UNK     1      38.288  21.046   0.407  1.00  0.00     0.217 HD
ENDBRANCH  15  18
ENDBRANCH   5  12
BRANCH   8  20
ATOM     20  O2  UNK     1      42.125  10.870  -1.668  1.00  0.00    -0.360 OA
ATOM     21  H8  UNK     1      41.648  10.288  -2.279  1.00  0.00     0.217 HD
ENDBRANCH   8  20
BRANCH  10  22
ATOM     22  O4  UNK     1      39.314  10.345   2.125  1.00  0.00    -0.361 OA
ATOM     23  H9  UNK     1      39.815   9.511   2.148  1.00  0.00     0.217 HD
ENDBRANCH  10  22
TORSDOF 4
ENDMDL
MODEL 4
REMARK VINA RESULT:      -5.6      9.629     11.874
REMARK  4 active torsions:
REMARK  status: ('A' for Active; 'I' for Inactive)
REMARK    1  A    between atoms: O2_2  and  C7_12 
REMARK    2  A    between atoms: O4_4  and  C9_14 
REMARK    3  A    between atoms: O5_5  and  C15_20 
REMARK    4  A    between atoms: C3_8  and  C4_9 
ROOT
ATOM      1  O1  UNK     1      45.843  11.312  -7.731  1.00  0.00    -0.309 OA
ATOM      2  O3  UNK     1      48.175   8.345  -9.264  1.00  0.00    -0.287 OA
ATOM      3  C1  UNK     1      46.069   9.415  -9.231  1.00  0.00     0.081 A 
ATOM      4  C2  UNK     1      45.328  10.451  -8.667  1.00  0.00     0.095 A 
ATOM      5  C3  UNK     1      47.156  11.136  -7.324  1.00  0.00     0.090 A 
ATOM      6  C5  UNK     1      47.467   9.231  -8.809  1.00  0.00     0.190 A 
ATOM      7  C6  UNK     1      47.973  10.181  -7.798  1.00  0.00     0.094 A 
ATOM      8  C7  UNK     1      45.493   8.569 -10.181  1.00  0.00     0.085 A 
ATOM      9  C8  UNK     1      44.001  10.649  -9.051  1.00  0.00     0.075 A 
ATOM     10  C9  UNK     1      43.421   9.807 -10.000  1.00  0.00     0.071 A 
ATOM     11  C10 UNK     1      44.166   8.768 -10.564  1.00  0.00     0.074 A 
ENDROOT
BRANCH   5  12
ATOM     12  C4  UNK     1      47.610  12.118  -6.319  1.00  0.00    -0.002 A 
ATOM     13  C12 UNK     1      48.105  13.359  -6.725  1.00  0.00     0.017 A 
ATOM     14  C14 UNK     1      48.534  14.287  -5.776  1.00  0.00     0.037 A 
ATOM     15  C15 UNK     1      48.469  13.976  -4.417  1.00  0.00     0.065 A 
ATOM     16  C13 UNK     1      47.975  12.738  -4.009  1.00  0.00     0.037 A 
ATOM     17  C11 UNK     1      47.546  11.810  -4.958  1.00  0.00     0.017 A 
BRANCH  15  18
ATOM     18  O5  UNK     1      48.888  14.881  -3.492  1.00  0.00    -0.361 OA
ATOM     19  H10 UNK     1      48.423  15.723  -3.641  1.00  0.00     0.217 HD
ENDBRANCH  15  18
ENDBRANCH   5  12
BRANCH   8  20
ATOM     20  O2  UNK     1      46.175   7.544 -10.762  1.00  0.00    -0.360 OA
ATOM     21  H8  UNK     1      45.654   6.727 -10.727  1.00  0.00     0.217 HD
ENDBRANCH   8  20
BRANCH  10  22
ATOM     22  O4  UNK     1      42.127   9.997 -10.378  1.00  0.00    -0.361 OA
ATOM     23  H9  UNK     1      41.589  10.170  -9.586  1.00  0.00     0.217 HD
ENDBRANCH  10  22
TORSDOF 4
ENDMDL
MODEL 5
REMARK VINA RESULT:      -5.6     10.201     12.148
REMARK  4 active torsions:
REMARK  status: ('A' for Active; 'I' for Inactive)
REMARK    1  A    between atoms: O2_2  and  C7_12 
REMARK    2  A    between atoms: O4_4  and  C9_14 
REMARK    3  A    between atoms: O5_5  and  C15_20 
REMARK    4  A    between atoms: C3_8  and  C4_9 
ROOT
ATOM      1  O1  UNK     1      46.094  11.244  -7.859  1.00  0.00    -0.309 OA
ATOM      2  O3  UNK     1      47.914   7.805  -9.070  1.00  0.00    -0.287 OA
ATOM      3  C1  UNK     1      45.943   9.107  -9.004  1.00  0.00     0.081 A 
ATOM      4  C2  UNK     1      45.383  10.303  -8.562  1.00  0.00     0.095 A 
ATOM      5  C3  UNK     1      47.426  10.985  -7.571  1.00  0.00     0.090 A 
ATOM      6  C5  UNK     1      47.358   8.833  -8.710  1.00  0.00     0.190 A 
ATOM      7  C6  UNK     1      48.079   9.875  -7.949  1.00  0.00     0.094 A 
ATOM      8  C7  UNK     1      45.171   8.186  -9.716  1.00  0.00     0.085 A 
ATOM      9  C8  UNK     1      44.044  10.588  -8.829  1.00  0.00     0.075 A 
ATOM     10  C9  UNK     1      43.269   9.672  -9.540  1.00  0.00     0.071 A 
ATOM     11  C10 UNK     1      43.831   8.472  -9.983  1.00  0.00     0.074 A 
ENDROOT
BRANCH   5  12
ATOM     12  C4  UNK     1      48.096  12.063  -6.818  1.00  0.00    -0.002 A 
ATOM     13  C12 UNK     1      47.749  12.312  -5.489  1.00  0.00     0.017 A 
ATOM     14  C14 UNK     1      48.382  13.331  -4.778  1.00  0.00     0.037 A 
ATOM     15  C15 UNK     1      49.366  14.105  -5.394  1.00  0.00     0.065 A 
ATOM     16  C13 UNK     1      49.715  13.860  -6.722  1.00  0.00     0.037 A 
ATOM     17  C11 UNK     1      49.082  12.840  -7.433  1.00  0.00     0.017 A 
BRANCH  15  18
ATOM     18  O5  UNK     1      49.982  15.099  -4.700  1.00  0.00    -0.361 OA
ATOM     19  H10 UNK     1      50.678  15.488  -5.258  1.00  0.00     0.217 HD
ENDBRANCH  15  18
ENDBRANCH   5  12
BRANCH   8  20
ATOM     20  O2  UNK     1      45.671   7.004 -10.171  1.00  0.00    -0.360 OA
ATOM     21  H8  UNK     1      46.308   6.638  -9.537  1.00  0.00     0.217 HD
ENDBRANCH   8  20
BRANCH  10  22
ATOM     22  O4  UNK     1      41.961   9.946  -9.804  1.00  0.00    -0.361 OA
ATOM     23  H9  UNK     1      41.724   9.557 -10.663  1.00  0.00     0.217 HD
ENDBRANCH  10  22
TORSDOF 4
ENDMDL
MODEL 6
REMARK VINA RESULT:      -5.5      9.740     12.176
REMARK  4 active torsions:
REMARK  status: ('A' for Active; 'I' for Inactive)
REMARK    1  A    between atoms: O2_2  and  C7_12 
REMARK    2  A    between atoms: O4_4  and  C9_14 
REMARK    3  A    between atoms: O5_5  and  C15_20 
REMARK    4  A    between atoms: C3_8  and  C4_9 
ROOT
ATOM      1  O1  UNK     1      46.112  10.983  -7.714  1.00  0.00    -0.309 OA
ATOM      2  O3  UNK     1      48.909   8.695  -9.596  1.00  0.00    -0.287 OA
ATOM      3  C1  UNK     1      46.627   9.257  -9.343  1.00  0.00     0.081 A 
ATOM      4  C2  UNK     1      45.724  10.071  -8.663  1.00  0.00     0.095 A 
ATOM      5  C3  UNK     1      47.462  11.091  -7.415  1.00  0.00     0.090 A 
ATOM      6  C5  UNK     1      48.061   9.376  -9.036  1.00  0.00     0.190 A 
ATOM      7  C6  UNK     1      48.427  10.369  -8.006  1.00  0.00     0.094 A 
ATOM      8  C7  UNK     1      46.176   8.347 -10.301  1.00  0.00     0.085 A 
ATOM      9  C8  UNK     1      44.360   9.980  -8.937  1.00  0.00     0.075 A 
ATOM     10  C9  UNK     1      43.903   9.072  -9.893  1.00  0.00     0.071 A 
ATOM     11  C10 UNK     1      44.810   8.256 -10.574  1.00  0.00     0.074 A 
ENDROOT
BRANCH   5  12
ATOM     12  C4  UNK     1      47.768  12.104  -6.385  1.00  0.00    -0.002 A 
ATOM     13  C12 UNK     1      47.552  11.821  -5.035  1.00  0.00     0.017 A 
ATOM     14  C14 UNK     1      47.841  12.779  -4.063  1.00  0.00     0.037 A 
ATOM     15  C15 UNK     1      48.347  14.023  -4.439  1.00  0.00     0.065 A 
ATOM     16  C13 UNK     1      48.563  14.310  -5.786  1.00  0.00     0.037 A 
ATOM     17  C11 UNK     1      48.275  13.352  -6.759  1.00  0.00     0.017 A 
BRANCH  15  18
ATOM     18  O5  UNK     1      48.628  14.958  -3.490  1.00  0.00    -0.361 OA
ATOM     19  H10 UNK     1      48.306  15.823  -3.796  1.00  0.00     0.217 HD
ENDBRANCH  15  18
ENDBRANCH   5  12
BRANCH   8  20
ATOM     20  O2  UNK     1      47.018   7.530 -10.993  1.00  0.00    -0.360 OA
ATOM     21  H8  UNK     1      47.914   7.578 -10.626  1.00  0.00     0.217 HD
ENDBRANCH   8  20
BRANCH  10  22
ATOM     22  O4  UNK     1      42.572   8.980 -10.164  1.00  0.00    -0.361 OA
ATOM     23  H9  UNK     1      42.093   9.621  -9.610  1.00  0.00     0.217 HD
ENDBRANCH  10  22
TORSDOF 4
ENDMDL
MODEL 7
REMARK VINA RESULT:      -5.5     10.247     13.135
REMARK  4 active torsions:
REMARK  status: ('A' for Active; 'I' for Inactive)
REMARK    1  A    between atoms: O2_2  and  C7_12 
REMARK    2  A    between atoms: O4_4  and  C9_14 
REMARK    3  A    between atoms: O5_5  and  C15_20 
REMARK    4  A    between atoms: C3_8  and  C4_9 
ROOT
ATOM      1  O1  UNK     1      48.418   9.750  -6.967  1.00  0.00    -0.309 OA
ATOM      2  O3  UNK     1      46.108  10.083 -10.307  1.00  0.00    -0.287 OA
ATOM      3  C1  UNK     1      47.523   8.731  -8.982  1.00  0.00     0.081 A 
ATOM      4  C2  UNK     1      48.295   8.685  -7.824  1.00  0.00     0.095 A 
ATOM      5  C3  UNK     1      47.750  10.925  -7.275  1.00  0.00     0.090 A 
ATOM      6  C5  UNK     1      46.805   9.973  -9.308  1.00  0.00     0.190 A 
ATOM      7  C6  UNK     1      46.971  11.091  -8.357  1.00  0.00     0.094 A 
ATOM      8  C7  UNK     1      47.434   7.616  -9.817  1.00  0.00     0.085 A 
ATOM      9  C8  UNK     1      48.984   7.519  -7.491  1.00  0.00     0.075 A 
ATOM     10  C9  UNK     1      48.899   6.401  -8.322  1.00  0.00     0.071 A 
ATOM     11  C10 UNK     1      48.125   6.450  -9.484  1.00  0.00     0.074 A 
ENDROOT
BRANCH   5  12
ATOM     12  C4  UNK     1      47.946  12.003  -6.286  1.00  0.00    -0.002 A 
ATOM     13  C12 UNK     1      48.329  13.280  -6.705  1.00  0.00     0.017 A 
ATOM     14  C14 UNK     1      48.514  14.297  -5.769  1.00  0.00     0.037 A 
ATOM     15  C15 UNK     1      48.318  14.043  -4.412  1.00  0.00     0.065 A 
ATOM     16  C13 UNK     1      47.936  12.769  -3.990  1.00  0.00     0.037 A 
ATOM     17  C11 UNK     1      47.750  11.751  -4.925  1.00  0.00     0.017 A 
BRANCH  15  18
ATOM     18  O5  UNK     1      48.500  15.035  -3.500  1.00  0.00    -0.361 OA
ATOM     19  H10 UNK     1      48.959  14.670  -2.724  1.00  0.00     0.217 HD
ENDBRANCH  15  18
ENDBRANCH   5  12
BRANCH   8  20
ATOM     20  O2  UNK     1      46.693   7.610 -10.960  1.00  0.00    -0.360 OA
ATOM     21  H8  UNK     1      45.855   7.142 -10.819  1.00  0.00     0.217 HD
ENDBRANCH   8  20
BRANCH  10  22
ATOM     22  O4  UNK     1      49.570   5.261  -8.000  1.00  0.00    -0.361 OA
ATOM     23  H9  UNK     1      49.978   4.897  -8.805  1.00  0.00     0.217 HD
ENDBRANCH  10  22
TORSDOF 4
ENDMDL
MODEL 8
REMARK VINA RESULT:      -5.5     10.246     13.113
REMARK  4 active torsions:
REMARK  status: ('A' for Active; 'I' for Inactive)
REMARK    1  A    between atoms: O2_2  and  C7_12 
REMARK    2  A    between atoms: O4_4  and  C9_14 
REMARK    3  A    between atoms: O5_5  and  C15_20 
REMARK    4  A    between atoms: C3_8  and  C4_9 
ROOT
ATOM      1  O1  UNK     1      48.420   9.748  -6.964  1.00  0.00    -0.309 OA
ATOM      2  O3  UNK     1      46.101  10.078 -10.297  1.00  0.00    -0.287 OA
ATOM      3  C1  UNK     1      47.522   8.728  -8.977  1.00  0.00     0.081 A 
ATOM      4  C2  UNK     1      48.297   8.682  -7.820  1.00  0.00     0.095 A 
ATOM      5  C3  UNK     1      47.750  10.922  -7.271  1.00  0.00     0.090 A 
ATOM      6  C5  UNK     1      46.801   9.969  -9.301  1.00  0.00     0.190 A 
ATOM      7  C6  UNK     1      46.968  11.087  -8.350  1.00  0.00     0.094 A 
ATOM      8  C7  UNK     1      47.431   7.612  -9.812  1.00  0.00     0.085 A 
ATOM      9  C8  UNK     1      48.988   7.517  -7.490  1.00  0.00     0.075 A 
ATOM     10  C9  UNK     1      48.902   6.399  -8.320  1.00  0.00     0.071 A 
ATOM     11  C10 UNK     1      48.125   6.447  -9.480  1.00  0.00     0.074 A 
ENDROOT
BRANCH   5  12
ATOM     12  C4  UNK     1      47.948  12.000  -6.282  1.00  0.00    -0.002 A 
ATOM     13  C12 UNK     1      47.750  11.751  -4.922  1.00  0.00     0.017 A 
ATOM     14  C14 UNK     1      47.936  12.770  -3.988  1.00  0.00     0.037 A 
ATOM     15  C15 UNK     1      48.320  14.043  -4.411  1.00  0.00     0.065 A 
ATOM     16  C13 UNK     1      48.517  14.296  -5.768  1.00  0.00     0.037 A 
ATOM     17  C11 UNK     1      48.332  13.277  -6.703  1.00  0.00     0.017 A 
BRANCH  15  18
ATOM     18  O5  UNK     1      48.500  15.037  -3.500  1.00  0.00    -0.361 OA
ATOM     19  H10 UNK     1      47.655  15.206  -3.048  1.00  0.00     0.217 HD
ENDBRANCH  15  18
ENDBRANCH   5  12
BRANCH   8  20
ATOM     20  O2  UNK     1      46.687   7.606 -10.952  1.00  0.00    -0.360 OA
ATOM     21  H8  UNK     1      45.834   8.043 -10.804  1.00  0.00     0.217 HD
ENDBRANCH   8  20
BRANCH  10  22
ATOM     22  O4  UNK     1      49.576   5.260  -8.001  1.00  0.00    -0.361 OA
ATOM     23  H9  UNK     1      49.156   4.508  -8.452  1.00  0.00     0.217 HD
ENDBRANCH  10  22
TORSDOF 4
ENDMDL
MODEL 9
REMARK VINA RESULT:      -5.4      9.830     11.492
REMARK  4 active torsions:
REMARK  status: ('A' for Active; 'I' for Inactive)
REMARK    1  A    between atoms: O2_2  and  C7_12 
REMARK    2  A    between atoms: O4_4  and  C9_14 
REMARK    3  A    between atoms: O5_5  and  C15_20 
REMARK    4  A    between atoms: C3_8  and  C4_9 
ROOT
ATOM      1  O1  UNK     1      47.204  12.035  -7.025  1.00  0.00    -0.309 OA
ATOM      2  O3  UNK     1      50.558  12.905  -9.168  1.00  0.00    -0.287 OA
ATOM      3  C1  UNK     1      49.322  13.212  -7.178  1.00  0.00     0.081 A 
ATOM      4  C2  UNK     1      48.154  12.873  -6.499  1.00  0.00     0.095 A 
ATOM      5  C3  UNK     1      47.414  11.511  -8.292  1.00  0.00     0.090 A 
ATOM      6  C5  UNK     1      49.554  12.651  -8.518  1.00  0.00     0.190 A 
ATOM      7  C6  UNK     1      48.500  11.757  -9.041  1.00  0.00     0.094 A 
ATOM      8  C7  UNK     1      50.257  14.070  -6.592  1.00  0.00     0.085 A 
ATOM      9  C8  UNK     1      47.912  13.389  -5.226  1.00  0.00     0.075 A 
ATOM     10  C9  UNK     1      48.842  14.247  -4.637  1.00  0.00     0.071 A 
ATOM     11  C10 UNK     1      50.012  14.587  -5.319  1.00  0.00     0.074 A 
ENDROOT
BRANCH   5  12
ATOM     12  C4  UNK     1      46.334  10.619  -8.758  1.00  0.00    -0.002 A 
ATOM     13  C12 UNK     1      46.643   9.391  -9.346  1.00  0.00     0.017 A 
ATOM     14  C14 UNK     1      45.622   8.549  -9.788  1.00  0.00     0.037 A 
ATOM     15  C15 UNK     1      44.289   8.933  -9.642  1.00  0.00     0.065 A 
ATOM     16  C13 UNK     1      43.977  10.159  -9.056  1.00  0.00     0.037 A 
ATOM     17  C11 UNK     1      44.997  11.002  -8.614  1.00  0.00     0.017 A 
BRANCH  15  18
ATOM     18  O5  UNK     1      43.293   8.112 -10.074  1.00  0.00    -0.361 OA
ATOM     19  H10 UNK     1      42.441   8.454  -9.753  1.00  0.00     0.217 HD
ENDBRANCH  15  18
ENDBRANCH   5  12
BRANCH   8  20
ATOM     20  O2  UNK     1      51.413  14.432  -7.214  1.00  0.00    -0.360 OA
ATOM     21  H8  UNK     1      51.702  15.306  -6.910  1.00  0.00     0.217 HD
ENDBRANCH   8  20
BRANCH  10  22
ATOM     22  O4  UNK     1      48.608  14.753  -3.394  1.00  0.00    -0.361 OA
ATOM     23  H9  UNK     1      47.707  15.119  -3.367  1.00  0.00     0.217 HD
ENDBRANCH  10  22
TORSDOF 4
ENDMDL
MODEL 10
REMARK VINA RESULT:      -5.3     10.181     11.463
REMARK  4 active torsions:
REMARK  status: ('A' for Active; 'I' for Inactive)
REMARK    1  A    between atoms: O2_2  and  C7_12 
REMARK    2  A    between atoms: O4_4  and  C9_14 
REMARK    3  A    between atoms: O5_5  and  C15_20 
REMARK    4  A    between atoms: C3_8  and  C4_9 
ROOT
ATOM      1  O1  UNK     1      46.278  11.340  -7.539  1.00  0.00    -0.309 OA
ATOM      2  O3  UNK     1      48.409  12.217 -10.899  1.00  0.00    -0.287 OA
ATOM      3  C1  UNK     1      46.361  11.505  -9.961  1.00  0.00     0.081 A 
ATOM      4  C2  UNK     1      45.690  11.222  -8.773  1.00  0.00     0.095 A 
ATOM      5  C3  UNK     1      47.601  11.750  -7.475  1.00  0.00     0.090 A 
ATOM      6  C5  UNK     1      47.761  11.950  -9.897  1.00  0.00     0.190 A 
ATOM      7  C6  UNK     1      48.350  12.058  -8.546  1.00  0.00     0.094 A 
ATOM      8  C7  UNK     1      45.711  11.368 -11.189  1.00  0.00     0.085 A 
ATOM      9  C8  UNK     1      44.361  10.800  -8.806  1.00  0.00     0.075 A 
ATOM     10  C9  UNK     1      43.707  10.662 -10.031  1.00  0.00     0.071 A 
ATOM     11  C10 UNK     1      44.381  10.945 -11.220  1.00  0.00     0.074 A 
ENDROOT
BRANCH   5  12
ATOM     12  C4  UNK     1      48.133  11.848  -6.101  1.00  0.00    -0.002 A 
ATOM     13  C12 UNK     1      48.644  10.716  -5.464  1.00  0.00     0.017 A 
ATOM     14  C14 UNK     1      49.145  10.809  -4.165  1.00  0.00     0.037 A 
ATOM     15  C15 UNK     1      49.137  12.035  -3.500  1.00  0.00     0.065 A 
ATOM     16  C13 UNK     1      48.626  13.168  -4.133  1.00  0.00     0.037 A 
ATOM     17  C11 UNK     1      48.125  13.075  -5.432  1.00  0.00     0.017 A 
BRANCH  15  18
ATOM     18  O5  UNK     1      49.625  12.125  -2.233  1.00  0.00    -0.361 OA
ATOM     19  H10 UNK     1      49.756  13.064  -2.012  1.00  0.00     0.217 HD
ENDBRANCH  15  18
ENDBRANCH   5  12
BRANCH   8  20
ATOM     20  O2  UNK     1      46.322  11.632 -12.377  1.00  0.00    -0.360 OA
ATOM     21  H8  UNK     1      47.090  12.210 -12.243  1.00  0.00     0.217 HD
ENDBRANCH   8  20
BRANCH  10  22
ATOM     22  O4  UNK     1      42.410  10.250 -10.066  1.00  0.00    -0.361 OA
ATOM     23  H9  UNK     1      41.862  10.887  -9.576  1.00  0.00     0.217 HD
ENDBRANCH  10  22
TORSDOF 4
ENDMDL
MODEL 11
REMARK VINA RESULT:      -5.3     10.192     12.305
REMARK  4 active torsions:
REMARK  status: ('A' for Active; 'I' for Inactive)
REMARK    1  A    between atoms: O2_2  and  C7_12 
REMARK    2  A    between atoms: O4_4  and  C9_14 
REMARK    3  A    between atoms: O5_5  and  C15_20 
REMARK    4  A    between atoms: C3_8  and  C4_9 
ROOT
ATOM      1  O1  UNK     1      47.840  11.463  -6.062  1.00  0.00    -0.309 OA
ATOM      2  O3  UNK     1      50.835   8.927  -7.155  1.00  0.00    -0.287 OA
ATOM      3  C1  UNK     1      49.881  10.285  -5.474  1.00  0.00     0.081 A 
ATOM      4  C2  UNK     1      48.828  11.144  -5.165  1.00  0.00     0.095 A 
ATOM      5  C3  UNK     1      47.899  10.912  -7.333  1.00  0.00     0.090 A 
ATOM      6  C5  UNK     1      49.942   9.690  -6.818  1.00  0.00     0.190 A 
ATOM      7  C6  UNK     1      48.857  10.067  -7.747  1.00  0.00     0.094 A 
ATOM      8  C7  UNK     1      50.859   9.995  -4.520  1.00  0.00     0.085 A 
ATOM      9  C8  UNK     1      48.745  11.719  -3.897  1.00  0.00     0.075 A 
ATOM     10  C9  UNK     1      49.720  11.433  -2.941  1.00  0.00     0.071 A 
ATOM     11  C10 UNK     1      50.775  10.573  -3.252  1.00  0.00     0.074 A 
ENDROOT
BRANCH   5  12
ATOM     12  C4  UNK     1      46.786  11.316  -8.215  1.00  0.00    -0.002 A 
ATOM     13  C12 UNK     1      45.479  11.356  -7.722  1.00  0.00     0.017 A 
ATOM     14  C14 UNK     1      44.428  11.737  -8.556  1.00  0.00     0.037 A 
ATOM     15  C15 UNK     1      44.679  12.080  -9.884  1.00  0.00     0.065 A 
ATOM     16  C13 UNK     1      45.982  12.040 -10.380  1.00  0.00     0.037 A 
ATOM     17  C11 UNK     1      47.034  11.659  -9.547  1.00  0.00     0.017 A 
BRANCH  15  18
ATOM     18  O5  UNK     1      43.653  12.451 -10.697  1.00  0.00    -0.361 OA
ATOM     19  H10 UNK     1      43.013  11.720 -10.750  1.00  0.00     0.217 HD
ENDBRANCH  15  18
ENDBRANCH   5  12
BRANCH   8  20
ATOM     20  O2  UNK     1      51.907   9.162  -4.772  1.00  0.00    -0.360 OA
ATOM     21  H8  UNK     1      52.282   9.344  -5.647  1.00  0.00     0.217 HD
ENDBRANCH   8  20
BRANCH  10  22
ATOM     22  O4  UNK     1      49.643  11.993  -1.702  1.00  0.00    -0.361 OA
ATOM     23  H9  UNK     1      49.368  12.922  -1.792  1.00  0.00     0.217 HD
ENDBRANCH  10  22
TORSDOF 4
ENDMDL
MODEL 12
REMARK VINA RESULT:      -5.3     10.013     11.627
REMARK  4 active torsions:
REMARK  status: ('A' for Active; 'I' for Inactive)
REMARK    1  A    between atoms: O2_2  and  C7_12 
REMARK    2  A    between atoms: O4_4  and  C9_14 
REMARK    3  A    between atoms: O5_5  and  C15_20 
REMARK    4  A    between atoms: C3_8  and  C4_9 
ROOT
ATOM      1  O1  UNK     1      46.611  11.575  -7.521  1.00  0.00    -0.309 OA
ATOM      2  O3  UNK     1      48.449   9.099 -10.183  1.00  0.00    -0.287 OA
ATOM      3  C1  UNK     1      46.652  10.564  -9.729  1.00  0.00     0.081 A 
ATOM      4  C2  UNK     1      46.075  11.396  -8.771  1.00  0.00     0.095 A 
ATOM      5  C3  UNK     1      47.772  10.890  -7.195  1.00  0.00     0.090 A 
ATOM      6  C5  UNK     1      47.889   9.843  -9.391  1.00  0.00     0.190 A 
ATOM      7  C6  UNK     1      48.424  10.067  -8.032  1.00  0.00     0.094 A 
ATOM      8  C7  UNK     1      46.063  10.420 -10.987  1.00  0.00     0.085 A 
ATOM      9  C8  UNK     1      44.903  12.092  -9.067  1.00  0.00     0.075 A 
ATOM     10  C9  UNK     1      44.311  11.952 -10.322  1.00  0.00     0.071 A 
ATOM     11  C10 UNK     1      44.890  11.116 -11.280  1.00  0.00     0.074 A 
ENDROOT
BRANCH   5  12
ATOM     12  C4  UNK     1      48.264  11.159  -5.830  1.00  0.00    -0.002 A 
ATOM     13  C12 UNK     1      47.863  12.313  -5.154  1.00  0.00     0.017 A 
ATOM     14  C14 UNK     1      48.329  12.567  -3.864  1.00  0.00     0.037 A 
ATOM     15  C15 UNK     1      49.198  11.668  -3.245  1.00  0.00     0.065 A 
ATOM     16  C13 UNK     1      49.601  10.515  -3.918  1.00  0.00     0.037 A 
ATOM     17  C11 UNK     1      49.135  10.260  -5.208  1.00  0.00     0.017 A 
BRANCH  15  18
ATOM     18  O5  UNK     1      49.652  11.917  -1.988  1.00  0.00    -0.361 OA
ATOM     19  H10 UNK     1      49.103  11.427  -1.352  1.00  0.00     0.217 HD
ENDBRANCH  15  18
ENDBRANCH   5  12
BRANCH   8  20
ATOM     20  O2  UNK     1      46.587   9.620 -11.956  1.00  0.00    -0.360 OA
ATOM     21  H8  UNK     1      47.488   9.348 -11.722  1.00  0.00     0.217 HD
ENDBRANCH   8  20
BRANCH  10  22
ATOM     22  O4  UNK     1      43.167  12.630 -10.614  1.00  0.00    -0.361 OA
ATOM     23  H9  UNK     1      42.656  12.120 -11.266  1.00  0.00     0.217 HD
ENDBRANCH  10  22
TORSDOF 4
ENDMDL
MODEL 13
REMARK VINA RESULT:      -5.2     11.176     13.555
REMARK  4 active torsions:
REMARK  status: ('A' for Active; 'I' for Inactive)
REMARK    1  A    between atoms: O2_2  and  C7_12 
REMARK    2  A    between atoms: O4_4  and  C9_14 
REMARK    3  A    between atoms: O5_5  and  C15_20 
REMARK    4  A    between atoms: C3_8  and  C4_9 
ROOT
ATOM      1  O1  UNK     1      52.116  11.215  -2.541  1.00  0.00    -0.309 OA
ATOM      2  O3  UNK     1      50.817  11.650   1.296  1.00  0.00    -0.287 OA
ATOM      3  C1  UNK     1      52.649  11.501  -0.188  1.00  0.00     0.081 A 
ATOM      4  C2  UNK     1      53.025  11.350  -1.521  1.00  0.00     0.095 A 
ATOM      5  C3  UNK     1      50.766  11.221  -2.226  1.00  0.00     0.090 A 
ATOM      6  C5  UNK     1      51.217  11.518   0.148  1.00  0.00     0.190 A 
ATOM      7  C6  UNK     1      50.280  11.367  -0.983  1.00  0.00     0.094 A 
ATOM      8  C7  UNK     1      53.618  11.636   0.808  1.00  0.00     0.085 A 
ATOM      9  C8  UNK     1      54.376  11.332  -1.868  1.00  0.00     0.075 A 
ATOM     10  C9  UNK     1      55.348  11.466  -0.876  1.00  0.00     0.071 A 
ATOM     11  C10 UNK     1      54.970  11.617   0.460  1.00  0.00     0.074 A 
ENDROOT
BRANCH   5  12
ATOM     12  C4  UNK     1      49.877  11.074  -3.396  1.00  0.00    -0.002 A 
ATOM     13  C12 UNK     1      50.088  10.043  -4.313  1.00  0.00     0.017 A 
ATOM     14  C14 UNK     1      49.249   9.906  -5.418  1.00  0.00     0.037 A 
ATOM     15  C15 UNK     1      48.195  10.800  -5.611  1.00  0.00     0.065 A 
ATOM     16  C13 UNK     1      47.982  11.832  -4.697  1.00  0.00     0.037 A 
ATOM     17  C11 UNK     1      48.821  11.969  -3.591  1.00  0.00     0.017 A 
BRANCH  15  18
ATOM     18  O5  UNK     1      47.377  10.666  -6.689  1.00  0.00    -0.361 OA
ATOM     19  H10 UNK     1      46.935  11.516  -6.856  1.00  0.00     0.217 HD
ENDBRANCH  15  18
ENDBRANCH   5  12
BRANCH   8  20
ATOM     20  O2  UNK     1      53.303  11.787   2.124  1.00  0.00    -0.360 OA
ATOM     21  H8  UNK     1      54.067  12.119   2.621  1.00  0.00     0.217 HD
ENDBRANCH   8  20
BRANCH  10  22
ATOM     22  O4  UNK     1      56.668  11.449  -1.210  1.00  0.00    -0.361 OA
ATOM     23  H9  UNK     1      56.819  10.746  -1.866  1.00  0.00     0.217 HD
ENDBRANCH  10  22
TORSDOF 4
ENDMDL
MODEL 14
REMARK VINA RESULT:      -5.2     11.563     13.901
REMARK  4 active torsions:
REMARK  status: ('A' for Active; 'I' for Inactive)
REMARK    1  A    between atoms: O2_2  and  C7_12 
REMARK    2  A    between atoms: O4_4  and  C9_14 
REMARK    3  A    between atoms: O5_5  and  C15_20 
REMARK    4  A    between atoms: C3_8  and  C4_9 
ROOT
ATOM      1  O1  UNK     1      40.602  14.512 -13.785  1.00  0.00    -0.309 OA
ATOM      2  O3  UNK     1      40.394  10.987 -11.755  1.00  0.00    -0.287 OA
ATOM      3  C1  UNK     1      39.502  12.374 -13.446  1.00  0.00     0.081 A 
ATOM      4  C2  UNK     1      39.630  13.597 -14.101  1.00  0.00     0.095 A 
ATOM      5  C3  UNK     1      41.489  14.208 -12.764  1.00  0.00     0.090 A 
ATOM      6  C5  UNK     1      40.447  12.042 -12.369  1.00  0.00     0.190 A 
ATOM      7  C6  UNK     1      41.473  13.061 -12.065  1.00  0.00     0.094 A 
ATOM      8  C7  UNK     1      38.493  11.480 -13.810  1.00  0.00     0.085 A 
ATOM      9  C8  UNK     1      38.748  13.935 -15.127  1.00  0.00     0.075 A 
ATOM     10  C9  UNK     1      37.738  13.045 -15.495  1.00  0.00     0.071 A 
ATOM     11  C10 UNK     1      37.610  11.820 -14.837  1.00  0.00     0.074 A 
ENDROOT
BRANCH   5  12
ATOM     12  C4  UNK     1      42.496  15.257 -12.511  1.00  0.00    -0.002 A 
ATOM     13  C12 UNK     1      42.886  15.556 -11.204  1.00  0.00     0.017 A 
ATOM     14  C14 UNK     1      43.837  16.548 -10.966  1.00  0.00     0.037 A 
ATOM     15  C15 UNK     1      44.401  17.246 -12.034  1.00  0.00     0.065 A 
ATOM     16  C13 UNK     1      44.012  16.951 -13.341  1.00  0.00     0.037 A 
ATOM     17  C11 UNK     1      43.062  15.959 -13.580  1.00  0.00     0.017 A 
BRANCH  15  18
ATOM     18  O5  UNK     1      45.327  18.215 -11.801  1.00  0.00    -0.361 OA
ATOM     19  H10 UNK     1      45.546  18.650 -12.643  1.00  0.00     0.217 HD
ENDBRANCH  15  18
ENDBRANCH   5  12
BRANCH   8  20
ATOM     20  O2  UNK     1      38.326  10.273 -13.202  1.00  0.00    -0.360 OA
ATOM     21  H8  UNK     1      38.537  10.336 -12.258  1.00  0.00     0.217 HD
ENDBRANCH   8  20
BRANCH  10  22
ATOM     22  O4  UNK     1      36.875  13.371 -16.497  1.00  0.00    -0.361 OA
ATOM     23  H9  UNK     1      36.852  12.644 -17.142  1.00  0.00     0.217 HD
ENDBRANCH  10  22
TORSDOF 4
ENDMDL
MODEL 15
REMARK VINA RESULT:      -5.2     10.611     12.864
REMARK  4 active torsions:
REMARK  status: ('A' for Active; 'I' for Inactive)
REMARK    1  A    between atoms: O2_2  and  C7_12 
REMARK    2  A    between atoms: O4_4  and  C9_14 
REMARK    3  A    between atoms: O5_5  and  C15_20 
REMARK    4  A    between atoms: C3_8  and  C4_9 
ROOT
ATOM      1  O1  UNK     1      51.086  10.113  -3.768  1.00  0.00    -0.309 OA
ATOM      2  O3  UNK     1      47.497  11.767  -4.763  1.00  0.00    -0.287 OA
ATOM      3  C1  UNK     1      49.284  10.349  -5.380  1.00  0.00     0.081 A 
ATOM      4  C2  UNK     1      50.507   9.817  -4.977  1.00  0.00     0.095 A 
ATOM      5  C3  UNK     1      50.426  10.985  -2.916  1.00  0.00     0.090 A 
ATOM      6  C5  UNK     1      48.575  11.266  -4.474  1.00  0.00     0.190 A 
ATOM      7  C6  UNK     1      49.240  11.555  -3.187  1.00  0.00     0.094 A 
ATOM      8  C7  UNK     1      48.741  10.012  -6.622  1.00  0.00     0.085 A 
ATOM      9  C8  UNK     1      51.198   8.943  -5.816  1.00  0.00     0.075 A 
ATOM     10  C9  UNK     1      50.661   8.604  -7.058  1.00  0.00     0.071 A 
ATOM     11  C10 UNK     1      49.435   9.137  -7.461  1.00  0.00     0.074 A 
ENDROOT
BRANCH   5  12
ATOM     12  C4  UNK     1      51.132  11.229  -1.643  1.00  0.00    -0.002 A 
ATOM     13  C12 UNK     1      50.410  11.513  -0.482  1.00  0.00     0.017 A 
ATOM     14  C14 UNK     1      51.078  11.744   0.720  1.00  0.00     0.037 A 
ATOM     15  C15 UNK     1      52.471  11.691   0.766  1.00  0.00     0.065 A 
ATOM     16  C13 UNK     1      53.196  11.409  -0.392  1.00  0.00     0.037 A 
ATOM     17  C11 UNK     1      52.528  11.177  -1.595  1.00  0.00     0.017 A 
BRANCH  15  18
ATOM     18  O5  UNK     1      53.122  11.918   1.939  1.00  0.00    -0.361 OA
ATOM     19  H10 UNK     1      52.524  12.389   2.545  1.00  0.00     0.217 HD
ENDBRANCH  15  18
ENDBRANCH   5  12
BRANCH   8  20
ATOM     20  O2  UNK     1      47.550  10.503  -7.061  1.00  0.00    -0.360 OA
ATOM     21  H8  UNK     1      47.611  10.758  -7.995  1.00  0.00     0.217 HD
ENDBRANCH   8  20
BRANCH  10  22
ATOM     22  O4  UNK     1      51.333   7.750  -7.880  1.00  0.00    -0.361 OA
ATOM     23  H9  UNK     1      51.153   7.995  -8.804  1.00  0.00     0.217 HD
ENDBRANCH  10  22
TORSDOF 4
ENDMDL
