MODEL 1
REMARK VINA RESULT:      -7.9      0.000      0.000
REMARK  4 active torsions:
REMARK  status: ('A' for Active; 'I' for Inactive)
REMARK    1  A    between atoms: O2_2  and  C7_12 
REMARK    2  A    between atoms: O4_4  and  C9_14 
REMARK    3  A    between atoms: O5_5  and  C15_20 
REMARK    4  A    between atoms: C3_8  and  C4_9 
ROOT
ATOM      1  O1  UNK     1      39.740  15.494  -0.047  1.00  0.00    -0.309 OA
ATOM      2  O3  UNK     1      41.209  16.435  -3.729  1.00  0.00    -0.287 OA
ATOM      3  C1  UNK     1      40.027  17.141  -1.809  1.00  0.00     0.081 A 
ATOM      4  C2  UNK     1      39.552  16.754  -0.558  1.00  0.00     0.095 A 
ATOM      5  C3  UNK     1      40.425  14.565  -0.816  1.00  0.00     0.090 A 
ATOM      6  C5  UNK     1      40.763  16.162  -2.624  1.00  0.00     0.190 A 
ATOM      7  C6  UNK     1      40.936  14.820  -2.032  1.00  0.00     0.094 A 
ATOM      8  C7  UNK     1      39.807  18.438  -2.278  1.00  0.00     0.085 A 
ATOM      9  C8  UNK     1      38.853  17.664   0.236  1.00  0.00     0.075 A 
ATOM     10  C9  UNK     1      38.631  18.961  -0.228  1.00  0.00     0.071 A 
ATOM     11  C10 UNK     1      39.107  19.347  -1.483  1.00  0.00     0.074 A 
ENDROOT
BRANCH   5  12
ATOM     12  C4  UNK     1      40.574  13.246  -0.171  1.00  0.00    -0.002 A 
ATOM     13  C12 UNK     1      41.057  12.158  -0.901  1.00  0.00     0.017 A 
ATOM     14  C14 UNK     1      41.197  10.912  -0.291  1.00  0.00     0.037 A 
ATOM     15  C15 UNK     1      40.856  10.750   1.052  1.00  0.00     0.065 A 
ATOM     16  C13 UNK     1      40.374  11.834   1.784  1.00  0.00     0.037 A 
ATOM     17  C11 UNK     1      40.233  13.081   1.175  1.00  0.00     0.017 A 
BRANCH  15  18
ATOM     18  O5  UNK     1      40.993   9.534   1.647  1.00  0.00    -0.361 OA
ATOM     19  H10 UNK     1      41.484   8.944   1.049  1.00  0.00     0.217 HD
ENDBRANCH  15  18
ENDBRANCH   5  12
BRANCH   8  20
ATOM     20  O2  UNK     1      40.250  18.866  -3.493  1.00  0.00    -0.360 OA
ATOM     21  H8  UNK     1      41.028  19.436  -3.389  1.00  0.00     0.217 HD
ENDBRANCH   8  20
BRANCH  10  22
ATOM     22  O4  UNK     1      37.949  19.852   0.543  1.00  0.00    -0.361 OA
ATOM     23  H9  UNK     1      37.956  19.541   1.465  1.00  0.00     0.217 HD
ENDBRANCH  10  22
TORSDOF 4
ENDMDL
MODEL 2
REMARK VINA RESULT:      -7.9      0.013      1.080
REMARK  4 active torsions:
REMARK  status: ('A' for Active; 'I' for Inactive)
REMARK    1  A    between atoms: O2_2  and  C7_12 
REMARK    2  A    between atoms: O4_4  and  C9_14 
REMARK    3  A    between atoms: O5_5  and  C15_20 
REMARK    4  A    between atoms: C3_8  and  C4_9 
ROOT
ATOM      1  O1  UNK     1      39.741  15.492  -0.048  1.00  0.00    -0.309 OA
ATOM      2  O3  UNK     1      41.196  16.438  -3.734  1.00  0.00    -0.287 OA
ATOM      3  C1  UNK     1      40.021  17.142  -1.808  1.00  0.00     0.081 A 
ATOM      4  C2  UNK     1      39.552  16.753  -0.556  1.00  0.00     0.095 A 
ATOM      5  C3  UNK     1      40.423  14.564  -0.821  1.00  0.00     0.090 A 
ATOM      6  C5  UNK     1      40.754  16.164  -2.627  1.00  0.00     0.190 A 
ATOM      7  C6  UNK     1      40.929  14.821  -2.038  1.00  0.00     0.094 A 
ATOM      8  C7  UNK     1      39.800  18.440  -2.274  1.00  0.00     0.085 A 
ATOM      9  C8  UNK     1      38.856  17.662   0.242  1.00  0.00     0.075 A 
ATOM     10  C9  UNK     1      38.632  18.959  -0.219  1.00  0.00     0.071 A 
ATOM     11  C10 UNK     1      39.103  19.347  -1.475  1.00  0.00     0.074 A 
ENDROOT
BRANCH   5  12
ATOM     12  C4  UNK     1      40.575  13.244  -0.178  1.00  0.00    -0.002 A 
ATOM     13  C12 UNK     1      40.251  13.079   1.170  1.00  0.00     0.017 A 
ATOM     14  C14 UNK     1      40.396  11.831   1.777  1.00  0.00     0.037 A 
ATOM     15  C15 UNK     1      40.865  10.745   1.038  1.00  0.00     0.065 A 
ATOM     16  C13 UNK     1      41.190  10.907  -0.308  1.00  0.00     0.037 A 
ATOM     17  C11 UNK     1      41.045  12.154  -0.916  1.00  0.00     0.017 A 
BRANCH  15  18
ATOM     18  O5  UNK     1      41.007   9.529   1.631  1.00  0.00    -0.361 OA
ATOM     19  H10 UNK     1      41.805   9.541   2.187  1.00  0.00     0.217 HD
ENDBRANCH  15  18
ENDBRANCH   5  12
BRANCH   8  20
ATOM     20  O2  UNK     1      40.239  18.869  -3.490  1.00  0.00    -0.360 OA
ATOM     21  H8  UNK     1      39.594  19.472  -3.890  1.00  0.00     0.217 HD
ENDBRANCH   8  20
BRANCH  10  22
ATOM     22  O4  UNK     1      37.953  19.849   0.556  1.00  0.00    -0.361 OA
ATOM     23  H9  UNK     1      36.999  19.728   0.414  1.00  0.00     0.217 HD
ENDBRANCH  10  22
TORSDOF 4
ENDMDL
MODEL 3
REMARK VINA RESULT:      -7.6      2.399      7.060
REMARK  4 active torsions:
REMARK  status: ('A' for Active; 'I' for Inactive)
REMARK    1  A    between atoms: O2_2  and  C7_12 
REMARK    2  A    between atoms: O4_4  and  C9_14 
REMARK    3  A    between atoms: O5_5  and  C15_20 
REMARK    4  A    between atoms: C3_8  and  C4_9 
ROOT
ATOM      1  O1  UNK     1      40.332  17.004  -1.099  1.00  0.00    -0.309 OA
ATOM      2  O3  UNK     1      36.859  14.917  -0.672  1.00  0.00    -0.287 OA
ATOM      3  C1  UNK     1      39.178  14.867  -1.124  1.00  0.00     0.081 A 
ATOM      4  C2  UNK     1      40.329  15.641  -1.254  1.00  0.00     0.095 A 
ATOM      5  C3  UNK     1      39.134  17.638  -0.807  1.00  0.00     0.090 A 
ATOM      6  C5  UNK     1      37.907  15.534  -0.804  1.00  0.00     0.190 A 
ATOM      7  C6  UNK     1      37.962  17.003  -0.649  1.00  0.00     0.094 A 
ATOM      8  C7  UNK     1      39.234  13.482  -1.292  1.00  0.00     0.085 A 
ATOM      9  C8  UNK     1      41.548  15.032  -1.555  1.00  0.00     0.075 A 
ATOM     10  C9  UNK     1      41.610  13.649  -1.725  1.00  0.00     0.071 A 
ATOM     11  C10 UNK     1      40.455  12.875  -1.594  1.00  0.00     0.074 A 
ENDROOT
BRANCH   5  12
ATOM     12  C4  UNK     1      39.251  19.101  -0.655  1.00  0.00    -0.002 A 
ATOM     13  C12 UNK     1      39.978  19.848  -1.585  1.00  0.00     0.017 A 
ATOM     14  C14 UNK     1      40.089  21.231  -1.441  1.00  0.00     0.037 A 
ATOM     15  C15 UNK     1      39.474  21.872  -0.366  1.00  0.00     0.065 A 
ATOM     16  C13 UNK     1      38.749  21.130   0.566  1.00  0.00     0.037 A 
ATOM     17  C11 UNK     1      38.637  19.747   0.422  1.00  0.00     0.017 A 
BRANCH  15  18
ATOM     18  O5  UNK     1      39.584  23.221  -0.225  1.00  0.00    -0.361 OA
ATOM     19  H10 UNK     1      40.504  23.440   0.001  1.00  0.00     0.217 HD
ENDBRANCH  15  18
ENDBRANCH   5  12
BRANCH   8  20
ATOM     20  O2  UNK     1      38.139  12.682  -1.174  1.00  0.00    -0.360 OA
ATOM     21  H8  UNK     1      38.242  12.073  -0.426  1.00  0.00     0.217 HD
ENDBRANCH   8  20
BRANCH  10  22
ATOM     22  O4  UNK     1      42.798  13.052  -2.018  1.00  0.00    -0.361 OA
ATOM     23  H9  UNK     1      43.361  13.687  -2.493  1.00  0.00     0.217 HD
ENDBRANCH  10  22
TORSDOF 4
ENDMDL
MODEL 4
REMARK VINA RESULT:      -7.1      1.499      6.711
REMARK  4 active torsions:
REMARK  status: ('A' for Active; 'I' for Inactive)
REMARK    1  A    between atoms: O2_2  and  C7_12 
REMARK    2  A    between atoms: O4_4  and  C9_14 
REMARK    3  A    between atoms: O5_5  and  C15_20 
REMARK    4  A    between atoms: C3_8  and  C4_9 
ROOT
ATOM      1  O1  UNK     1      39.830  14.324   0.201  1.00  0.00    -0.309 OA
ATOM      2  O3  UNK     1      42.310  12.457  -2.437  1.00  0.00    -0.287 OA
ATOM      3  C1  UNK     1      40.995  12.305  -0.480  1.00  0.00     0.081 A 
ATOM      4  C2  UNK     1      40.153  13.003   0.383  1.00  0.00     0.095 A 
ATOM      5  C3  UNK     1      40.373  14.994  -0.885  1.00  0.00     0.090 A 
ATOM      6  C5  UNK     1      41.566  13.009  -1.639  1.00  0.00     0.190 A 
ATOM      7  C6  UNK     1      41.190  14.429  -1.789  1.00  0.00     0.094 A 
ATOM      8  C7  UNK     1      41.289  10.960  -0.246  1.00  0.00     0.085 A 
ATOM      9  C8  UNK     1      39.597  12.359   1.488  1.00  0.00     0.075 A 
ATOM     10  C9  UNK     1      39.888  11.015   1.726  1.00  0.00     0.071 A 
ATOM     11  C10 UNK     1      40.733  10.317   0.861  1.00  0.00     0.074 A 
ENDROOT
BRANCH   5  12
ATOM     12  C4  UNK     1      39.956  16.406  -0.989  1.00  0.00    -0.002 A 
ATOM     13  C12 UNK     1      39.264  17.013   0.061  1.00  0.00     0.017 A 
ATOM     14  C14 UNK     1      38.870  18.347  -0.038  1.00  0.00     0.037 A 
ATOM     15  C15 UNK     1      39.166  19.079  -1.188  1.00  0.00     0.065 A 
ATOM     16  C13 UNK     1      39.855  18.476  -2.240  1.00  0.00     0.037 A 
ATOM     17  C11 UNK     1      40.251  17.141  -2.141  1.00  0.00     0.017 A 
BRANCH  15  18
ATOM     18  O5  UNK     1      38.780  20.380  -1.285  1.00  0.00    -0.361 OA
ATOM     19  H10 UNK     1      38.233  20.604  -0.511  1.00  0.00     0.217 HD
ENDBRANCH  15  18
ENDBRANCH   5  12
BRANCH   8  20
ATOM     20  O2  UNK     1      42.106  10.234  -1.059  1.00  0.00    -0.360 OA
ATOM     21  H8  UNK     1      42.682  10.821  -1.573  1.00  0.00     0.217 HD
ENDBRANCH   8  20
BRANCH  10  22
ATOM     22  O4  UNK     1      39.347  10.383   2.804  1.00  0.00    -0.361 OA
ATOM     23  H9  UNK     1      39.776   9.517   2.910  1.00  0.00     0.217 HD
ENDBRANCH  10  22
TORSDOF 4
ENDMDL
MODEL 5
REMARK VINA RESULT:      -7.1      1.575      6.657
REMARK  4 active torsions:
REMARK  status: ('A' for Active; 'I' for Inactive)
REMARK    1  A    between atoms: O2_2  and  C7_12 
REMARK    2  A    between atoms: O4_4  and  C9_14 
REMARK    3  A    between atoms: O5_5  and  C15_20 
REMARK    4  A    between atoms: C3_8  and  C4_9 
ROOT
ATOM      1  O1  UNK     1      40.153  14.361   0.332  1.00  0.00    -0.309 OA
ATOM      2  O3  UNK     1      41.896  11.846  -2.358  1.00  0.00    -0.287 OA
ATOM      3  C1  UNK     1      41.008  12.148  -0.189  1.00  0.00     0.081 A 
ATOM      4  C2  UNK     1      40.413  13.060   0.681  1.00  0.00     0.095 A 
ATOM      5  C3  UNK     1      40.505  14.787  -0.940  1.00  0.00     0.090 A 
ATOM      6  C5  UNK     1      41.374  12.594  -1.543  1.00  0.00     0.190 A 
ATOM      7  C6  UNK     1      41.075  14.003  -1.868  1.00  0.00     0.094 A 
ATOM      8  C7  UNK     1      41.249  10.835   0.219  1.00  0.00     0.085 A 
ATOM      9  C8  UNK     1      40.055  12.663   1.969  1.00  0.00     0.075 A 
ATOM     10  C9  UNK     1      40.294  11.352   2.383  1.00  0.00     0.071 A 
ATOM     11  C10 UNK     1      40.890  10.440   1.509  1.00  0.00     0.074 A 
ENDROOT
BRANCH   5  12
ATOM     12  C4  UNK     1      40.175  16.200  -1.211  1.00  0.00    -0.002 A 
ATOM     13  C12 UNK     1      40.427  16.751  -2.470  1.00  0.00     0.017 A 
ATOM     14  C14 UNK     1      40.116  18.086  -2.725  1.00  0.00     0.037 A 
ATOM     15  C15 UNK     1      39.552  18.876  -1.723  1.00  0.00     0.065 A 
ATOM     16  C13 UNK     1      39.300  18.330  -0.465  1.00  0.00     0.037 A 
ATOM     17  C11 UNK     1      39.610  16.994  -0.209  1.00  0.00     0.017 A 
BRANCH  15  18
ATOM     18  O5  UNK     1      39.250  20.178  -1.973  1.00  0.00    -0.361 OA
ATOM     19  H10 UNK     1      40.076  20.690  -2.021  1.00  0.00     0.217 HD
ENDBRANCH  15  18
ENDBRANCH   5  12
BRANCH   8  20
ATOM     20  O2  UNK     1      41.826   9.907  -0.593  1.00  0.00    -0.360 OA
ATOM     21  H8  UNK     1      42.243   9.207  -0.066  1.00  0.00     0.217 HD
ENDBRANCH   8  20
BRANCH  10  22
ATOM     22  O4  UNK     1      39.945  10.961   3.639  1.00  0.00    -0.361 OA
ATOM     23  H9  UNK     1      39.092  11.367   3.871  1.00  0.00     0.217 HD
ENDBRANCH  10  22
TORSDOF 4
ENDMDL
MODEL 6
REMARK VINA RESULT:      -6.9      1.276      2.999
REMARK  4 active torsions:
REMARK  status: ('A' for Active; 'I' for Inactive)
REMARK    1  A    between atoms: O2_2  and  C7_12 
REMARK    2  A    between atoms: O4_4  and  C9_14 
REMARK    3  A    between atoms: O5_5  and  C15_20 
REMARK    4  A    between atoms: C3_8  and  C4_9 
ROOT
ATOM      1  O1  UNK     1      40.609  15.194  -1.941  1.00  0.00    -0.309 OA
ATOM      2  O3  UNK     1      38.917  18.103   0.357  1.00  0.00    -0.287 OA
ATOM      3  C1  UNK     1      39.883  17.501  -1.714  1.00  0.00     0.081 A 
ATOM      4  C2  UNK     1      40.452  16.461  -2.445  1.00  0.00     0.095 A 
ATOM      5  C3  UNK     1      40.189  14.944  -0.643  1.00  0.00     0.090 A 
ATOM      6  C5  UNK     1      39.427  17.238  -0.340  1.00  0.00     0.190 A 
ATOM      7  C6  UNK     1      39.621  15.860   0.158  1.00  0.00     0.094 A 
ATOM      8  C7  UNK     1      39.748  18.771  -2.279  1.00  0.00     0.085 A 
ATOM      9  C8  UNK     1      40.890  16.683  -3.751  1.00  0.00     0.075 A 
ATOM     10  C9  UNK     1      40.758  17.950  -4.320  1.00  0.00     0.071 A 
ATOM     11  C10 UNK     1      40.188  18.992  -3.585  1.00  0.00     0.074 A 
ENDROOT
BRANCH   5  12
ATOM     12  C4  UNK     1      40.399  13.551  -0.203  1.00  0.00    -0.002 A 
ATOM     13  C12 UNK     1      40.068  13.168   1.099  1.00  0.00     0.017 A 
ATOM     14  C14 UNK     1      40.267  11.851   1.514  1.00  0.00     0.037 A 
ATOM     15  C15 UNK     1      40.798  10.913   0.629  1.00  0.00     0.065 A 
ATOM     16  C13 UNK     1      41.130  11.292  -0.672  1.00  0.00     0.037 A 
ATOM     17  C11 UNK     1      40.931  12.608  -1.088  1.00  0.00     0.017 A 
BRANCH  15  18
ATOM     18  O5  UNK     1      40.992   9.629   1.035  1.00  0.00    -0.361 OA
ATOM     19  H10 UNK     1      40.487   9.477   1.852  1.00  0.00     0.217 HD
ENDBRANCH  15  18
ENDBRANCH   5  12
BRANCH   8  20
ATOM     20  O2  UNK     1      39.199  19.820  -1.607  1.00  0.00    -0.360 OA
ATOM     21  H8  UNK     1      39.868  20.261  -1.061  1.00  0.00     0.217 HD
ENDBRANCH   8  20
BRANCH  10  22
ATOM     22  O4  UNK     1      41.184  18.171  -5.594  1.00  0.00    -0.361 OA
ATOM     23  H9  UNK     1      42.025  18.661  -5.565  1.00  0.00     0.217 HD
ENDBRANCH  10  22
TORSDOF 4
ENDMDL
MODEL 7
REMARK VINA RESULT:      -6.7      1.542      6.707
REMARK  4 active torsions:
REMARK  status: ('A' for Active; 'I' for Inactive)
REMARK    1  A    between atoms: O2_2  and  C7_12 
REMARK    2  A    between atoms: O4_4  and  C9_14 
REMARK    3  A    between atoms: O5_5  and  C15_20 
REMARK    4  A    between atoms: C3_8  and  C4_9 
ROOT
ATOM      1  O1  UNK     1      40.283  14.118   0.661  1.00  0.00    -0.309 OA
ATOM      2  O3  UNK     1      41.576  10.739  -1.211  1.00  0.00    -0.287 OA
ATOM      3  C1  UNK     1      40.855  11.762   0.793  1.00  0.00     0.081 A 
ATOM      4  C2  UNK     1      40.418  12.952   1.371  1.00  0.00     0.095 A 
ATOM      5  C3  UNK     1      40.605  14.112  -0.688  1.00  0.00     0.090 A 
ATOM      6  C5  UNK     1      41.188  11.748  -0.640  1.00  0.00     0.190 A 
ATOM      7  C6  UNK     1      41.029  13.029  -1.358  1.00  0.00     0.094 A 
ATOM      8  C7  UNK     1      40.973  10.603   1.564  1.00  0.00     0.085 A 
ATOM      9  C8  UNK     1      40.093  12.991   2.727  1.00  0.00     0.075 A 
ATOM     10  C9  UNK     1      40.209  11.837   3.502  1.00  0.00     0.071 A 
ATOM     11  C10 UNK     1      40.649  10.645   2.921  1.00  0.00     0.074 A 
ENDROOT
BRANCH   5  12
ATOM     12  C4  UNK     1      40.418  15.415  -1.355  1.00  0.00    -0.002 A 
ATOM     13  C12 UNK     1      40.825  15.591  -2.679  1.00  0.00     0.017 A 
ATOM     14  C14 UNK     1      40.650  16.823  -3.309  1.00  0.00     0.037 A 
ATOM     15  C15 UNK     1      40.066  17.884  -2.616  1.00  0.00     0.065 A 
ATOM     16  C13 UNK     1      39.659  17.712  -1.294  1.00  0.00     0.037 A 
ATOM     17  C11 UNK     1      39.834  16.480  -0.663  1.00  0.00     0.017 A 
BRANCH  15  18
ATOM     18  O5  UNK     1      39.896  19.086  -3.231  1.00  0.00    -0.361 OA
ATOM     19  H10 UNK     1      40.765  19.424  -3.508  1.00  0.00     0.217 HD
ENDBRANCH  15  18
ENDBRANCH   5  12
BRANCH   8  20
ATOM     20  O2  UNK     1      41.395   9.416   1.048  1.00  0.00    -0.360 OA
ATOM     21  H8  UNK     1      42.340   9.457   0.832  1.00  0.00     0.217 HD
ENDBRANCH   8  20
BRANCH  10  22
ATOM     22  O4  UNK     1      39.894  11.872   4.826  1.00  0.00    -0.361 OA
ATOM     23  H9  UNK     1      40.491  11.275   5.308  1.00  0.00     0.217 HD
ENDBRANCH  10  22
TORSDOF 4
ENDMDL
MODEL 8
REMARK VINA RESULT:      -5.6     10.275     12.178
REMARK  4 active torsions:
REMARK  status: ('A' for Active; 'I' for Inactive)
REMARK    1  A    between atoms: O2_2  and  C7_12 
REMARK    2  A    between atoms: O4_4  and  C9_14 
REMARK    3  A    between atoms: O5_5  and  C15_20 
REMARK    4  A    between atoms: C3_8  and  C4_9 
ROOT
ATOM      1  O1  UNK     1      46.164  11.242  -7.884  1.00  0.00    -0.309 OA
ATOM      2  O3  UNK     1      47.932   7.772  -9.081  1.00  0.00    -0.287 OA
ATOM      3  C1  UNK     1      45.978   9.099  -9.012  1.00  0.00     0.081 A 
ATOM      4  C2  UNK     1      45.436  10.306  -8.574  1.00  0.00     0.095 A 
ATOM      5  C3  UNK     1      47.494  10.969  -7.603  1.00  0.00     0.090 A 
ATOM      6  C5  UNK     1      47.392   8.810  -8.725  1.00  0.00     0.190 A 
ATOM      7  C6  UNK     1      48.131   9.847  -7.977  1.00  0.00     0.094 A 
ATOM      8  C7  UNK     1      45.190   8.183  -9.712  1.00  0.00     0.085 A 
ATOM      9  C8  UNK     1      44.099  10.605  -8.835  1.00  0.00     0.075 A 
ATOM     10  C9  UNK     1      43.307   9.694  -9.534  1.00  0.00     0.071 A 
ATOM     11  C10 UNK     1      43.852   8.484  -9.971  1.00  0.00     0.074 A 
ENDROOT
BRANCH   5  12
ATOM     12  C4  UNK     1      48.183  12.044  -6.862  1.00  0.00    -0.002 A 
ATOM     13  C12 UNK     1      47.843  12.311  -5.534  1.00  0.00     0.017 A 
ATOM     14  C14 UNK     1      48.494  13.327  -4.835  1.00  0.00     0.037 A 
ATOM     15  C15 UNK     1      49.488  14.079  -5.462  1.00  0.00     0.065 A 
ATOM     16  C13 UNK     1      49.830  13.816  -6.788  1.00  0.00     0.037 A 
ATOM     17  C11 UNK     1      49.179  12.799  -7.487  1.00  0.00     0.017 A 
BRANCH  15  18
ATOM     18  O5  UNK     1      50.122  15.071  -4.779  1.00  0.00    -0.361 OA
ATOM     19  H10 UNK     1      49.616  15.896  -4.881  1.00  0.00     0.217 HD
ENDBRANCH  15  18
ENDBRANCH   5  12
BRANCH   8  20
ATOM     20  O2  UNK     1      45.672   6.991 -10.161  1.00  0.00    -0.360 OA
ATOM     21  H8  UNK     1      46.603   6.885  -9.910  1.00  0.00     0.217 HD
ENDBRANCH   8  20
BRANCH  10  22
ATOM     22  O4  UNK     1      42.002   9.983  -9.790  1.00  0.00    -0.361 OA
ATOM     23  H9  UNK     1      41.600  10.365  -8.991  1.00  0.00     0.217 HD
ENDBRANCH  10  22
TORSDOF 4
ENDMDL
MODEL 9
REMARK VINA RESULT:      -5.6     10.277     12.132
REMARK  4 active torsions:
REMARK  status: ('A' for Active; 'I' for Inactive)
REMARK    1  A    between atoms: O2_2  and  C7_12 
REMARK    2  A    between atoms: O4_4  and  C9_14 
REMARK    3  A    between atoms: O5_5  and  C15_20 
REMARK    4  A    between atoms: C3_8  and  C4_9 
ROOT
ATOM      1  O1  UNK     1      46.158  11.251  -7.886  1.00  0.00    -0.309 OA
ATOM      2  O3  UNK     1      47.918   7.771  -9.067  1.00  0.00    -0.287 OA
ATOM      3  C1  UNK     1      45.968   9.104  -9.007  1.00  0.00     0.081 A 
ATOM      4  C2  UNK     1      45.429  10.314  -8.575  1.00  0.00     0.095 A 
ATOM      5  C3  UNK     1      47.486  10.974  -7.601  1.00  0.00     0.090 A 
ATOM      6  C5  UNK     1      47.380   8.812  -8.715  1.00  0.00     0.190 A 
ATOM      7  C6  UNK     1      48.120   9.850  -7.969  1.00  0.00     0.094 A 
ATOM      8  C7  UNK     1      45.179   8.188  -9.706  1.00  0.00     0.085 A 
ATOM      9  C8  UNK     1      44.093  10.617  -8.840  1.00  0.00     0.075 A 
ATOM     10  C9  UNK     1      43.301   9.706  -9.538  1.00  0.00     0.071 A 
ATOM     11  C10 UNK     1      43.842   8.493  -9.969  1.00  0.00     0.074 A 
ENDROOT
BRANCH   5  12
ATOM     12  C4  UNK     1      48.177  12.049  -6.862  1.00  0.00    -0.002 A 
ATOM     13  C12 UNK     1      49.162  12.814  -7.492  1.00  0.00     0.017 A 
ATOM     14  C14 UNK     1      49.815  13.829  -6.793  1.00  0.00     0.037 A 
ATOM     15  C15 UNK     1      49.485  14.084  -5.462  1.00  0.00     0.065 A 
ATOM     16  C13 UNK     1      48.503  13.322  -4.829  1.00  0.00     0.037 A 
ATOM     17  C11 UNK     1      47.850  12.306  -5.527  1.00  0.00     0.017 A 
BRANCH  15  18
ATOM     18  O5  UNK     1      50.123  15.073  -4.780  1.00  0.00    -0.361 OA
ATOM     19  H10 UNK     1      49.460  15.701  -4.443  1.00  0.00     0.217 HD
ENDBRANCH  15  18
ENDBRANCH   5  12
BRANCH   8  20
ATOM     20  O2  UNK     1      45.658   6.993 -10.149  1.00  0.00    -0.360 OA
ATOM     21  H8  UNK     1      44.927   6.400 -10.383  1.00  0.00     0.217 HD
ENDBRANCH   8  20
BRANCH  10  22
ATOM     22  O4  UNK     1      41.997   9.998  -9.798  1.00  0.00    -0.361 OA
ATOM     23  H9  UNK     1      41.627  10.490  -9.045  1.00  0.00     0.217 HD
ENDBRANCH  10  22
TORSDOF 4
ENDMDL
