MODEL 1
REMARK VINA RESULT:      -7.9      0.000      0.000
REMARK  4 active torsions:
REMARK  status: ('A' for Active; 'I' for Inactive)
REMARK    1  A    between atoms: O2_2  and  C7_12 
REMARK    2  A    between atoms: O4_4  and  C9_14 
REMARK    3  A    between atoms: O5_5  and  C15_20 
REMARK    4  A    between atoms: C3_8  and  C4_9 
ROOT
ATOM      1  O1  UNK     1      39.751  15.507  -0.057  1.00  0.00    -0.309 OA
ATOM      2  O3  UNK     1      41.214  16.429  -3.745  1.00  0.00    -0.287 OA
ATOM      3  C1  UNK     1      40.041  17.148  -1.824  1.00  0.00     0.081 A 
ATOM      4  C2  UNK     1      39.568  16.767  -0.571  1.00  0.00     0.095 A 
ATOM      5  C3  UNK     1      40.429  14.573  -0.825  1.00  0.00     0.090 A 
ATOM      6  C5  UNK     1      40.770  16.162  -2.638  1.00  0.00     0.190 A 
ATOM      7  C6  UNK     1      40.938  14.821  -2.042  1.00  0.00     0.094 A 
ATOM      8  C7  UNK     1      39.827  18.444  -2.297  1.00  0.00     0.085 A 
ATOM      9  C8  UNK     1      38.876  17.683   0.222  1.00  0.00     0.075 A 
ATOM     10  C9  UNK     1      38.659  18.979  -0.245  1.00  0.00     0.071 A 
ATOM     11  C10 UNK     1      39.133  19.359  -1.503  1.00  0.00     0.074 A 
ENDROOT
BRANCH   5  12
ATOM     12  C4  UNK     1      40.573  13.255  -0.175  1.00  0.00    -0.002 A 
ATOM     13  C12 UNK     1      41.030  12.158  -0.908  1.00  0.00     0.017 A 
ATOM     14  C14 UNK     1      41.166  10.913  -0.294  1.00  0.00     0.037 A 
ATOM     15  C15 UNK     1      40.846  10.761   1.055  1.00  0.00     0.065 A 
ATOM     16  C13 UNK     1      40.389  11.854   1.790  1.00  0.00     0.037 A 
ATOM     17  C11 UNK     1      40.253  13.100   1.176  1.00  0.00     0.017 A 
BRANCH  15  18
ATOM     18  O5  UNK     1      40.977   9.546   1.653  1.00  0.00    -0.361 OA
ATOM     19  H10 UNK     1      41.648   9.612   2.355  1.00  0.00     0.217 HD
ENDBRANCH  15  18
ENDBRANCH   5  12
BRANCH   8  20
ATOM     20  O2  UNK     1      40.269  18.866  -3.514  1.00  0.00    -0.360 OA
ATOM     21  H8  UNK     1      41.159  18.522  -3.689  1.00  0.00     0.217 HD
ENDBRANCH   8  20
BRANCH  10  22
ATOM     22  O4  UNK     1      37.984  19.876   0.525  1.00  0.00    -0.361 OA
ATOM     23  H9  UNK     1      38.598  20.259   1.175  1.00  0.00     0.217 HD
ENDBRANCH  10  22
TORSDOF 4
ENDMDL
MODEL 2
REMARK VINA RESULT:      -7.9      0.003      1.080
REMARK  4 active torsions:
REMARK  status: ('A' for Active; 'I' for Inactive)
REMARK    1  A    between atoms: O2_2  and  C7_12 
REMARK    2  A    between atoms: O4_4  and  C9_14 
REMARK    3  A    between atoms: O5_5  and  C15_20 
REMARK    4  A    between atoms: C3_8  and  C4_9 
ROOT
ATOM      1  O1  UNK     1      39.748  15.507  -0.058  1.00  0.00    -0.309 OA
ATOM      2  O3  UNK     1      41.216  16.431  -3.744  1.00  0.00    -0.287 OA
ATOM      3  C1  UNK     1      40.041  17.148  -1.824  1.00  0.00     0.081 A 
ATOM      4  C2  UNK     1      39.566  16.766  -0.571  1.00  0.00     0.095 A 
ATOM      5  C3  UNK     1      40.427  14.572  -0.825  1.00  0.00     0.090 A 
ATOM      6  C5  UNK     1      40.771  16.163  -2.638  1.00  0.00     0.190 A 
ATOM      7  C6  UNK     1      40.937  14.821  -2.042  1.00  0.00     0.094 A 
ATOM      8  C7  UNK     1      39.828  18.445  -2.296  1.00  0.00     0.085 A 
ATOM      9  C8  UNK     1      38.874  17.682   0.221  1.00  0.00     0.075 A 
ATOM     10  C9  UNK     1      38.657  18.979  -0.245  1.00  0.00     0.071 A 
ATOM     11  C10 UNK     1      39.133  19.360  -1.502  1.00  0.00     0.074 A 
ENDROOT
BRANCH   5  12
ATOM     12  C4  UNK     1      40.570  13.254  -0.177  1.00  0.00    -0.002 A 
ATOM     13  C12 UNK     1      40.249  13.097   1.173  1.00  0.00     0.017 A 
ATOM     14  C14 UNK     1      40.386  11.851   1.785  1.00  0.00     0.037 A 
ATOM     15  C15 UNK     1      40.844  10.758   1.050  1.00  0.00     0.065 A 
ATOM     16  C13 UNK     1      41.167  10.912  -0.299  1.00  0.00     0.037 A 
ATOM     17  C11 UNK     1      41.030  12.157  -0.912  1.00  0.00     0.017 A 
BRANCH  15  18
ATOM     18  O5  UNK     1      40.978   9.544   1.648  1.00  0.00    -0.361 OA
ATOM     19  H10 UNK     1      40.130   9.299   2.056  1.00  0.00     0.217 HD
ENDBRANCH  15  18
ENDBRANCH   5  12
BRANCH   8  20
ATOM     20  O2  UNK     1      40.272  18.867  -3.512  1.00  0.00    -0.360 OA
ATOM     21  H8  UNK     1      39.565  18.799  -4.173  1.00  0.00     0.217 HD
ENDBRANCH   8  20
BRANCH  10  22
ATOM     22  O4  UNK     1      37.982  19.875   0.525  1.00  0.00    -0.361 OA
ATOM     23  H9  UNK     1      37.038  19.843   0.292  1.00  0.00     0.217 HD
ENDBRANCH  10  22
TORSDOF 4
ENDMDL
MODEL 3
REMARK VINA RESULT:      -7.6      2.387      7.061
REMARK  4 active torsions:
REMARK  status: ('A' for Active; 'I' for Inactive)
REMARK    1  A    between atoms: O2_2  and  C7_12 
REMARK    2  A    between atoms: O4_4  and  C9_14 
REMARK    3  A    between atoms: O5_5  and  C15_20 
REMARK    4  A    between atoms: C3_8  and  C4_9 
ROOT
ATOM      1  O1  UNK     1      40.343  16.993  -1.140  1.00  0.00    -0.309 OA
ATOM      2  O3  UNK     1      36.873  14.911  -0.668  1.00  0.00    -0.287 OA
ATOM      3  C1  UNK     1      39.188  14.856  -1.137  1.00  0.00     0.081 A 
ATOM      4  C2  UNK     1      40.338  15.629  -1.283  1.00  0.00     0.095 A 
ATOM      5  C3  UNK     1      39.147  17.630  -0.845  1.00  0.00     0.090 A 
ATOM      6  C5  UNK     1      37.919  15.527  -0.813  1.00  0.00     0.190 A 
ATOM      7  C6  UNK     1      37.975  16.996  -0.672  1.00  0.00     0.094 A 
ATOM      8  C7  UNK     1      39.243  13.470  -1.293  1.00  0.00     0.085 A 
ATOM      9  C8  UNK     1      41.555  15.018  -1.588  1.00  0.00     0.075 A 
ATOM     10  C9  UNK     1      41.615  13.633  -1.745  1.00  0.00     0.071 A 
ATOM     11  C10 UNK     1      40.461  12.860  -1.599  1.00  0.00     0.074 A 
ENDROOT
BRANCH   5  12
ATOM     12  C4  UNK     1      39.265  19.095  -0.707  1.00  0.00    -0.002 A 
ATOM     13  C12 UNK     1      40.012  19.829  -1.631  1.00  0.00     0.017 A 
ATOM     14  C14 UNK     1      40.124  21.213  -1.499  1.00  0.00     0.037 A 
ATOM     15  C15 UNK     1      39.490  21.868  -0.444  1.00  0.00     0.065 A 
ATOM     16  C13 UNK     1      38.744  21.138   0.481  1.00  0.00     0.037 A 
ATOM     17  C11 UNK     1      38.631  19.754   0.350  1.00  0.00     0.017 A 
BRANCH  15  18
ATOM     18  O5  UNK     1      39.601  23.218  -0.316  1.00  0.00    -0.361 OA
ATOM     19  H10 UNK     1      40.478  23.493  -0.635  1.00  0.00     0.217 HD
ENDBRANCH  15  18
ENDBRANCH   5  12
BRANCH   8  20
ATOM     20  O2  UNK     1      38.148  12.671  -1.160  1.00  0.00    -0.360 OA
ATOM     21  H8  UNK     1      37.336  13.183  -1.297  1.00  0.00     0.217 HD
ENDBRANCH   8  20
BRANCH  10  22
ATOM     22  O4  UNK     1      42.801  13.033  -2.042  1.00  0.00    -0.361 OA
ATOM     23  H9  UNK     1      42.718  12.576  -2.898  1.00  0.00     0.217 HD
ENDBRANCH  10  22
TORSDOF 4
ENDMDL
MODEL 4
REMARK VINA RESULT:      -7.2      1.495      6.634
REMARK  4 active torsions:
REMARK  status: ('A' for Active; 'I' for Inactive)
REMARK    1  A    between atoms: O2_2  and  C7_12 
REMARK    2  A    between atoms: O4_4  and  C9_14 
REMARK    3  A    between atoms: O5_5  and  C15_20 
REMARK    4  A    between atoms: C3_8  and  C4_9 
ROOT
ATOM      1  O1  UNK     1      39.827  14.315   0.207  1.00  0.00    -0.309 OA
ATOM      2  O3  UNK     1      42.322  12.480  -2.439  1.00  0.00    -0.287 OA
ATOM      3  C1  UNK     1      41.003  12.307  -0.486  1.00  0.00     0.081 A 
ATOM      4  C2  UNK     1      40.156  12.994   0.380  1.00  0.00     0.095 A 
ATOM      5  C3  UNK     1      40.370  14.996  -0.872  1.00  0.00     0.090 A 
ATOM      6  C5  UNK     1      41.574  13.022  -1.638  1.00  0.00     0.190 A 
ATOM      7  C6  UNK     1      41.191  14.442  -1.778  1.00  0.00     0.094 A 
ATOM      8  C7  UNK     1      41.303  10.961  -0.262  1.00  0.00     0.085 A 
ATOM      9  C8  UNK     1      39.600  12.339   1.479  1.00  0.00     0.075 A 
ATOM     10  C9  UNK     1      39.896  10.995   1.707  1.00  0.00     0.071 A 
ATOM     11  C10 UNK     1      40.747  10.307   0.839  1.00  0.00     0.074 A 
ENDROOT
BRANCH   5  12
ATOM     12  C4  UNK     1      39.946  16.407  -0.966  1.00  0.00    -0.002 A 
ATOM     13  C12 UNK     1      40.219  17.146  -2.119  1.00  0.00     0.017 A 
ATOM     14  C14 UNK     1      39.819  18.480  -2.206  1.00  0.00     0.037 A 
ATOM     15  C15 UNK     1      39.145  19.078  -1.142  1.00  0.00     0.065 A 
ATOM     16  C13 UNK     1      38.872  18.342   0.011  1.00  0.00     0.037 A 
ATOM     17  C11 UNK     1      39.271  17.009   0.099  1.00  0.00     0.017 A 
BRANCH  15  18
ATOM     18  O5  UNK     1      38.756  20.379  -1.228  1.00  0.00    -0.361 OA
ATOM     19  H10 UNK     1      39.549  20.941  -1.283  1.00  0.00     0.217 HD
ENDBRANCH  15  18
ENDBRANCH   5  12
BRANCH   8  20
ATOM     20  O2  UNK     1      42.125  10.246  -1.079  1.00  0.00    -0.360 OA
ATOM     21  H8  UNK     1      42.215  10.685  -1.939  1.00  0.00     0.217 HD
ENDBRANCH   8  20
BRANCH  10  22
ATOM     22  O4  UNK     1      39.356  10.352   2.779  1.00  0.00    -0.361 OA
ATOM     23  H9  UNK     1      38.555  10.827   3.061  1.00  0.00     0.217 HD
ENDBRANCH  10  22
TORSDOF 4
ENDMDL
MODEL 5
REMARK VINA RESULT:      -7.2      1.495      6.712
REMARK  4 active torsions:
REMARK  status: ('A' for Active; 'I' for Inactive)
REMARK    1  A    between atoms: O2_2  and  C7_12 
REMARK    2  A    between atoms: O4_4  and  C9_14 
REMARK    3  A    between atoms: O5_5  and  C15_20 
REMARK    4  A    between atoms: C3_8  and  C4_9 
ROOT
ATOM      1  O1  UNK     1      39.828  14.315   0.208  1.00  0.00    -0.309 OA
ATOM      2  O3  UNK     1      42.329  12.484  -2.436  1.00  0.00    -0.287 OA
ATOM      3  C1  UNK     1      41.007  12.308  -0.485  1.00  0.00     0.081 A 
ATOM      4  C2  UNK     1      40.157  12.994   0.379  1.00  0.00     0.095 A 
ATOM      5  C3  UNK     1      40.373  14.997  -0.870  1.00  0.00     0.090 A 
ATOM      6  C5  UNK     1      41.579  13.025  -1.636  1.00  0.00     0.190 A 
ATOM      7  C6  UNK     1      41.197  14.445  -1.775  1.00  0.00     0.094 A 
ATOM      8  C7  UNK     1      41.306  10.962  -0.263  1.00  0.00     0.085 A 
ATOM      9  C8  UNK     1      39.599  12.337   1.476  1.00  0.00     0.075 A 
ATOM     10  C9  UNK     1      39.895  10.993   1.704  1.00  0.00     0.071 A 
ATOM     11  C10 UNK     1      40.748  10.307   0.836  1.00  0.00     0.074 A 
ENDROOT
BRANCH   5  12
ATOM     12  C4  UNK     1      39.949  16.408  -0.963  1.00  0.00    -0.002 A 
ATOM     13  C12 UNK     1      39.271  17.009   0.100  1.00  0.00     0.017 A 
ATOM     14  C14 UNK     1      38.870  18.342   0.011  1.00  0.00     0.037 A 
ATOM     15  C15 UNK     1      39.147  19.079  -1.141  1.00  0.00     0.065 A 
ATOM     16  C13 UNK     1      39.824  18.481  -2.204  1.00  0.00     0.037 A 
ATOM     17  C11 UNK     1      40.225  17.148  -2.116  1.00  0.00     0.017 A 
BRANCH  15  18
ATOM     18  O5  UNK     1      38.755  20.379  -1.227  1.00  0.00    -0.361 OA
ATOM     19  H10 UNK     1      38.412  20.662  -0.362  1.00  0.00     0.217 HD
ENDBRANCH  15  18
ENDBRANCH   5  12
BRANCH   8  20
ATOM     20  O2  UNK     1      42.130  10.248  -1.078  1.00  0.00    -0.360 OA
ATOM     21  H8  UNK     1      41.832   9.326  -1.138  1.00  0.00     0.217 HD
ENDBRANCH   8  20
BRANCH  10  22
ATOM     22  O4  UNK     1      39.353  10.348   2.773  1.00  0.00    -0.361 OA
ATOM     23  H9  UNK     1      40.055  10.166   3.422  1.00  0.00     0.217 HD
ENDBRANCH  10  22
TORSDOF 4
ENDMDL
MODEL 6
REMARK VINA RESULT:      -6.9      1.272      2.994
REMARK  4 active torsions:
REMARK  status: ('A' for Active; 'I' for Inactive)
REMARK    1  A    between atoms: O2_2  and  C7_12 
REMARK    2  A    between atoms: O4_4  and  C9_14 
REMARK    3  A    between atoms: O5_5  and  C15_20 
REMARK    4  A    between atoms: C3_8  and  C4_9 
ROOT
ATOM      1  O1  UNK     1      40.606  15.202  -1.941  1.00  0.00    -0.309 OA
ATOM      2  O3  UNK     1      38.912  18.111   0.355  1.00  0.00    -0.287 OA
ATOM      3  C1  UNK     1      39.879  17.509  -1.716  1.00  0.00     0.081 A 
ATOM      4  C2  UNK     1      40.449  16.468  -2.446  1.00  0.00     0.095 A 
ATOM      5  C3  UNK     1      40.186  14.952  -0.644  1.00  0.00     0.090 A 
ATOM      6  C5  UNK     1      39.423  17.245  -0.342  1.00  0.00     0.190 A 
ATOM      7  C6  UNK     1      39.616  15.868   0.156  1.00  0.00     0.094 A 
ATOM      8  C7  UNK     1      39.743  18.778  -2.281  1.00  0.00     0.085 A 
ATOM      9  C8  UNK     1      40.887  16.691  -3.752  1.00  0.00     0.075 A 
ATOM     10  C9  UNK     1      40.755  17.958  -4.321  1.00  0.00     0.071 A 
ATOM     11  C10 UNK     1      40.184  19.000  -3.587  1.00  0.00     0.074 A 
ENDROOT
BRANCH   5  12
ATOM     12  C4  UNK     1      40.396  13.559  -0.204  1.00  0.00    -0.002 A 
ATOM     13  C12 UNK     1      40.079  13.180   1.103  1.00  0.00     0.017 A 
ATOM     14  C14 UNK     1      40.279  11.864   1.518  1.00  0.00     0.037 A 
ATOM     15  C15 UNK     1      40.795  10.921   0.629  1.00  0.00     0.065 A 
ATOM     16  C13 UNK     1      41.113  11.296  -0.676  1.00  0.00     0.037 A 
ATOM     17  C11 UNK     1      40.913  12.613  -1.093  1.00  0.00     0.017 A 
BRANCH  15  18
ATOM     18  O5  UNK     1      40.990   9.638   1.035  1.00  0.00    -0.361 OA
ATOM     19  H10 UNK     1      40.145   9.277   1.356  1.00  0.00     0.217 HD
ENDBRANCH  15  18
ENDBRANCH   5  12
BRANCH   8  20
ATOM     20  O2  UNK     1      39.193  19.827  -1.609  1.00  0.00    -0.360 OA
ATOM     21  H8  UNK     1      39.799  20.585  -1.607  1.00  0.00     0.217 HD
ENDBRANCH   8  20
BRANCH  10  22
ATOM     22  O4  UNK     1      41.182  18.179  -5.595  1.00  0.00    -0.361 OA
ATOM     23  H9  UNK     1      41.745  18.972  -5.606  1.00  0.00     0.217 HD
ENDBRANCH  10  22
TORSDOF 4
ENDMDL
MODEL 7
REMARK VINA RESULT:      -6.1     16.020     17.863
REMARK  4 active torsions:
REMARK  status: ('A' for Active; 'I' for Inactive)
REMARK    1  A    between atoms: O2_2  and  C7_12 
REMARK    2  A    between atoms: O4_4  and  C9_14 
REMARK    3  A    between atoms: O5_5  and  C15_20 
REMARK    4  A    between atoms: C3_8  and  C4_9 
ROOT
ATOM      1  O1  UNK     1      44.221   1.669   7.489  1.00  0.00    -0.309 OA
ATOM      2  O3  UNK     1      45.758   0.665  11.126  1.00  0.00    -0.287 OA
ATOM      3  C1  UNK     1      46.156   1.484   8.946  1.00  0.00     0.081 A 
ATOM      4  C2  UNK     1      45.566   1.809   7.727  1.00  0.00     0.095 A 
ATOM      5  C3  UNK     1      43.419   1.173   8.506  1.00  0.00     0.090 A 
ATOM      6  C5  UNK     1      45.307   0.968  10.031  1.00  0.00     0.190 A 
ATOM      7  C6  UNK     1      43.868   0.832   9.725  1.00  0.00     0.094 A 
ATOM      8  C7  UNK     1      47.530   1.649   9.132  1.00  0.00     0.085 A 
ATOM      9  C8  UNK     1      46.348   2.303   6.682  1.00  0.00     0.075 A 
ATOM     10  C9  UNK     1      47.721   2.469   6.863  1.00  0.00     0.071 A 
ATOM     11  C10 UNK     1      48.312   2.142   8.085  1.00  0.00     0.074 A 
ENDROOT
BRANCH   5  12
ATOM     12  C4  UNK     1      41.992   1.068   8.147  1.00  0.00    -0.002 A 
ATOM     13  C12 UNK     1      41.293  -0.118   8.383  1.00  0.00     0.017 A 
ATOM     14  C14 UNK     1      39.944  -0.217   8.043  1.00  0.00     0.037 A 
ATOM     15  C15 UNK     1      39.289   0.870   7.464  1.00  0.00     0.065 A 
ATOM     16  C13 UNK     1      39.984   2.056   7.225  1.00  0.00     0.037 A 
ATOM     17  C11 UNK     1      41.332   2.156   7.566  1.00  0.00     0.017 A 
BRANCH  15  18
ATOM     18  O5  UNK     1      37.974   0.773   7.131  1.00  0.00    -0.361 OA
ATOM     19  H10 UNK     1      37.900   0.342   6.261  1.00  0.00     0.217 HD
ENDBRANCH  15  18
ENDBRANCH   5  12
BRANCH   8  20
ATOM     20  O2  UNK     1      48.155   1.346  10.304  1.00  0.00    -0.360 OA
ATOM     21  H8  UNK     1      48.090   0.396  10.487  1.00  0.00     0.217 HD
ENDBRANCH   8  20
BRANCH  10  22
ATOM     22  O4  UNK     1      48.487   2.950   5.846  1.00  0.00    -0.361 OA
ATOM     23  H9  UNK     1      48.259   2.477   5.027  1.00  0.00     0.217 HD
ENDBRANCH  10  22
TORSDOF 4
ENDMDL
MODEL 8
REMARK VINA RESULT:      -6.1     16.016     17.864
REMARK  4 active torsions:
REMARK  status: ('A' for Active; 'I' for Inactive)
REMARK    1  A    between atoms: O2_2  and  C7_12 
REMARK    2  A    between atoms: O4_4  and  C9_14 
REMARK    3  A    between atoms: O5_5  and  C15_20 
REMARK    4  A    between atoms: C3_8  and  C4_9 
ROOT
ATOM      1  O1  UNK     1      44.218   1.671   7.488  1.00  0.00    -0.309 OA
ATOM      2  O3  UNK     1      45.750   0.664  11.126  1.00  0.00    -0.287 OA
ATOM      3  C1  UNK     1      46.151   1.484   8.947  1.00  0.00     0.081 A 
ATOM      4  C2  UNK     1      45.562   1.810   7.727  1.00  0.00     0.095 A 
ATOM      5  C3  UNK     1      43.415   1.176   8.504  1.00  0.00     0.090 A 
ATOM      6  C5  UNK     1      45.301   0.967  10.030  1.00  0.00     0.190 A 
ATOM      7  C6  UNK     1      43.862   0.834   9.722  1.00  0.00     0.094 A 
ATOM      8  C7  UNK     1      47.525   1.647   9.134  1.00  0.00     0.085 A 
ATOM      9  C8  UNK     1      46.346   2.304   6.684  1.00  0.00     0.075 A 
ATOM     10  C9  UNK     1      47.720   2.468   6.866  1.00  0.00     0.071 A 
ATOM     11  C10 UNK     1      48.308   2.140   8.089  1.00  0.00     0.074 A 
ENDROOT
BRANCH   5  12
ATOM     12  C4  UNK     1      41.987   1.073   8.142  1.00  0.00    -0.002 A 
ATOM     13  C12 UNK     1      41.328   2.161   7.565  1.00  0.00     0.017 A 
ATOM     14  C14 UNK     1      39.979   2.062   7.225  1.00  0.00     0.037 A 
ATOM     15  C15 UNK     1      39.285   0.876   7.460  1.00  0.00     0.065 A 
ATOM     16  C13 UNK     1      39.939  -0.212   8.036  1.00  0.00     0.037 A 
ATOM     17  C11 UNK     1      41.288  -0.115   8.377  1.00  0.00     0.017 A 
BRANCH  15  18
ATOM     18  O5  UNK     1      37.969   0.781   7.128  1.00  0.00    -0.361 OA
ATOM     19  H10 UNK     1      37.556   1.657   7.223  1.00  0.00     0.217 HD
ENDBRANCH  15  18
ENDBRANCH   5  12
BRANCH   8  20
ATOM     20  O2  UNK     1      48.148   1.343  10.307  1.00  0.00    -0.360 OA
ATOM     21  H8  UNK     1      49.097   1.537  10.247  1.00  0.00     0.217 HD
ENDBRANCH   8  20
BRANCH  10  22
ATOM     22  O4  UNK     1      48.488   2.950   5.850  1.00  0.00    -0.361 OA
ATOM     23  H9  UNK     1      49.424   2.794   6.061  1.00  0.00     0.217 HD
ENDBRANCH  10  22
TORSDOF 4
ENDMDL
MODEL 9
REMARK VINA RESULT:      -6.0     12.816     15.649
REMARK  4 active torsions:
REMARK  status: ('A' for Active; 'I' for Inactive)
REMARK    1  A    between atoms: O2_2  and  C7_12 
REMARK    2  A    between atoms: O4_4  and  C9_14 
REMARK    3  A    between atoms: O5_5  and  C15_20 
REMARK    4  A    between atoms: C3_8  and  C4_9 
ROOT
ATOM      1  O1  UNK     1      38.901  22.087  11.012  1.00  0.00    -0.309 OA
ATOM      2  O3  UNK     1      37.723  19.656  14.062  1.00  0.00    -0.287 OA
ATOM      3  C1  UNK     1      39.315  20.123  12.380  1.00  0.00     0.081 A 
ATOM      4  C2  UNK     1      39.661  20.995  11.350  1.00  0.00     0.095 A 
ATOM      5  C3  UNK     1      37.735  22.326  11.724  1.00  0.00     0.090 A 
ATOM      6  C5  UNK     1      38.084  20.379  13.144  1.00  0.00     0.190 A 
ATOM      7  C6  UNK     1      37.301  21.564  12.740  1.00  0.00     0.094 A 
ATOM      8  C7  UNK     1      40.127  19.027  12.681  1.00  0.00     0.085 A 
ATOM      9  C8  UNK     1      40.824  20.776  10.612  1.00  0.00     0.075 A 
ATOM     10  C9  UNK     1      41.638  19.683  10.908  1.00  0.00     0.071 A 
ATOM     11  C10 UNK     1      41.290  18.810  11.941  1.00  0.00     0.074 A 
ENDROOT
BRANCH   5  12
ATOM     12  C4  UNK     1      36.999  23.527  11.282  1.00  0.00    -0.002 A 
ATOM     13  C12 UNK     1      35.965  23.414  10.351  1.00  0.00     0.017 A 
ATOM     14  C14 UNK     1      35.270  24.549   9.934  1.00  0.00     0.037 A 
ATOM     15  C15 UNK     1      35.608  25.802  10.447  1.00  0.00     0.065 A 
ATOM     16  C13 UNK     1      36.641  25.918  11.376  1.00  0.00     0.037 A 
ATOM     17  C11 UNK     1      37.336  24.783  11.794  1.00  0.00     0.017 A 
BRANCH  15  18
ATOM     18  O5  UNK     1      34.931  26.909  10.039  1.00  0.00    -0.361 OA
ATOM     19  H10 UNK     1      35.401  27.700  10.356  1.00  0.00     0.217 HD
ENDBRANCH  15  18
ENDBRANCH   5  12
BRANCH   8  20
ATOM     20  O2  UNK     1      39.834  18.147  13.678  1.00  0.00    -0.360 OA
ATOM     21  H8  UNK     1      39.021  17.660  13.472  1.00  0.00     0.217 HD
ENDBRANCH   8  20
BRANCH  10  22
ATOM     22  O4  UNK     1      42.775  19.467  10.190  1.00  0.00    -0.361 OA
ATOM     23  H9  UNK     1      43.544  19.693  10.740  1.00  0.00     0.217 HD
ENDBRANCH  10  22
TORSDOF 4
ENDMDL
MODEL 10
REMARK VINA RESULT:      -6.0     12.650     15.205
REMARK  4 active torsions:
REMARK  status: ('A' for Active; 'I' for Inactive)
REMARK    1  A    between atoms: O2_2  and  C7_12 
REMARK    2  A    between atoms: O4_4  and  C9_14 
REMARK    3  A    between atoms: O5_5  and  C15_20 
REMARK    4  A    between atoms: C3_8  and  C4_9 
ROOT
ATOM      1  O1  UNK     1      36.593  23.353  10.669  1.00  0.00    -0.309 OA
ATOM      2  O3  UNK     1      34.395  22.836  14.061  1.00  0.00    -0.287 OA
ATOM      3  C1  UNK     1      34.685  24.001  12.025  1.00  0.00     0.081 A 
ATOM      4  C2  UNK     1      35.479  24.125  10.887  1.00  0.00     0.095 A 
ATOM      5  C3  UNK     1      36.945  22.415  11.628  1.00  0.00     0.090 A 
ATOM      6  C5  UNK     1      35.049  23.000  13.040  1.00  0.00     0.190 A 
ATOM      7  C6  UNK     1      36.257  22.197  12.760  1.00  0.00     0.094 A 
ATOM      8  C7  UNK     1      33.561  24.813  12.194  1.00  0.00     0.085 A 
ATOM      9  C8  UNK     1      35.155  25.064   9.909  1.00  0.00     0.075 A 
ATOM     10  C9  UNK     1      34.034  25.878  10.073  1.00  0.00     0.071 A 
ATOM     11  C10 UNK     1      33.239  25.753  11.214  1.00  0.00     0.074 A 
ENDROOT
BRANCH   5  12
ATOM     12  C4  UNK     1      38.153  21.637  11.291  1.00  0.00    -0.002 A 
ATOM     13  C12 UNK     1      38.640  21.628   9.982  1.00  0.00     0.017 A 
ATOM     14  C14 UNK     1      39.781  20.892   9.664  1.00  0.00     0.037 A 
ATOM     15  C15 UNK     1      40.440  20.163  10.654  1.00  0.00     0.065 A 
ATOM     16  C13 UNK     1      39.956  20.169  11.962  1.00  0.00     0.037 A 
ATOM     17  C11 UNK     1      38.815  20.905  12.281  1.00  0.00     0.017 A 
BRANCH  15  18
ATOM     18  O5  UNK     1      41.553  19.445  10.343  1.00  0.00    -0.361 OA
ATOM     19  H10 UNK     1      41.815  19.651   9.429  1.00  0.00     0.217 HD
ENDBRANCH  15  18
ENDBRANCH   5  12
BRANCH   8  20
ATOM     20  O2  UNK     1      32.753  24.730  13.287  1.00  0.00    -0.360 OA
ATOM     21  H8  UNK     1      31.873  25.084  13.086  1.00  0.00     0.217 HD
ENDBRANCH   8  20
BRANCH  10  22
ATOM     22  O4  UNK     1      33.714  26.796   9.120  1.00  0.00    -0.361 OA
ATOM     23  H9  UNK     1      32.983  26.448   8.579  1.00  0.00     0.217 HD
ENDBRANCH  10  22
TORSDOF 4
ENDMDL
MODEL 11
REMARK VINA RESULT:      -5.9     15.742     18.205
REMARK  4 active torsions:
REMARK  status: ('A' for Active; 'I' for Inactive)
REMARK    1  A    between atoms: O2_2  and  C7_12 
REMARK    2  A    between atoms: O4_4  and  C9_14 
REMARK    3  A    between atoms: O5_5  and  C15_20 
REMARK    4  A    between atoms: C3_8  and  C4_9 
ROOT
ATOM      1  O1  UNK     1      43.086   1.385   8.100  1.00  0.00    -0.309 OA
ATOM      2  O3  UNK     1      41.546  -1.728  10.230  1.00  0.00    -0.287 OA
ATOM      3  C1  UNK     1      41.148   0.079   8.760  1.00  0.00     0.081 A 
ATOM      4  C2  UNK     1      41.739   1.125   8.056  1.00  0.00     0.095 A 
ATOM      5  C3  UNK     1      43.890   0.574   8.887  1.00  0.00     0.090 A 
ATOM      6  C5  UNK     1      41.998  -0.790   9.588  1.00  0.00     0.190 A 
ATOM      7  C6  UNK     1      43.440  -0.467   9.605  1.00  0.00     0.094 A 
ATOM      8  C7  UNK     1      39.771  -0.140   8.677  1.00  0.00     0.085 A 
ATOM      9  C8  UNK     1      40.956   1.963   7.261  1.00  0.00     0.075 A 
ATOM     10  C9  UNK     1      39.580   1.749   7.175  1.00  0.00     0.071 A 
ATOM     11  C10 UNK     1      38.988   0.700   7.882  1.00  0.00     0.074 A 
ENDROOT
BRANCH   5  12
ATOM     12  C4  UNK     1      45.320   0.938   8.858  1.00  0.00    -0.002 A 
ATOM     13  C12 UNK     1      45.816   1.754   7.839  1.00  0.00     0.017 A 
ATOM     14  C14 UNK     1      47.168   2.097   7.812  1.00  0.00     0.037 A 
ATOM     15  C15 UNK     1      48.028   1.625   8.804  1.00  0.00     0.065 A 
ATOM     16  C13 UNK     1      47.536   0.809   9.822  1.00  0.00     0.037 A 
ATOM     17  C11 UNK     1      46.184   0.466   9.850  1.00  0.00     0.017 A 
BRANCH  15  18
ATOM     18  O5  UNK     1      49.347   1.959   8.776  1.00  0.00    -0.361 OA
ATOM     19  H10 UNK     1      49.815   1.448   9.459  1.00  0.00     0.217 HD
ENDBRANCH  15  18
ENDBRANCH   5  12
BRANCH   8  20
ATOM     20  O2  UNK     1      39.145  -1.148   9.344  1.00  0.00    -0.360 OA
ATOM     21  H8  UNK     1      38.210  -1.193   9.093  1.00  0.00     0.217 HD
ENDBRANCH   8  20
BRANCH  10  22
ATOM     22  O4  UNK     1      38.812   2.564   6.400  1.00  0.00    -0.361 OA
ATOM     23  H9  UNK     1      38.101   2.941   6.947  1.00  0.00     0.217 HD
ENDBRANCH  10  22
TORSDOF 4
ENDMDL
MODEL 12
REMARK VINA RESULT:      -5.9     16.137     18.307
REMARK  4 active torsions:
REMARK  status: ('A' for Active; 'I' for Inactive)
REMARK    1  A    between atoms: O2_2  and  C7_12 
REMARK    2  A    between atoms: O4_4  and  C9_14 
REMARK    3  A    between atoms: O5_5  and  C15_20 
REMARK    4  A    between atoms: C3_8  and  C4_9 
ROOT
ATOM      1  O1  UNK     1      41.885  -0.431   8.427  1.00  0.00    -0.309 OA
ATOM      2  O3  UNK     1      39.173   2.307   7.103  1.00  0.00    -0.287 OA
ATOM      3  C1  UNK     1      39.578   0.120   7.903  1.00  0.00     0.081 A 
ATOM      4  C2  UNK     1      40.556  -0.766   8.348  1.00  0.00     0.095 A 
ATOM      5  C3  UNK     1      42.268   0.844   8.039  1.00  0.00     0.090 A 
ATOM      6  C5  UNK     1      39.979   1.477   7.501  1.00  0.00     0.190 A 
ATOM      7  C6  UNK     1      41.420   1.788   7.602  1.00  0.00     0.094 A 
ATOM      8  C7  UNK     1      38.240  -0.275   7.844  1.00  0.00     0.085 A 
ATOM      9  C8  UNK     1      40.202  -2.058   8.738  1.00  0.00     0.075 A 
ATOM     10  C9  UNK     1      38.867  -2.458   8.680  1.00  0.00     0.071 A 
ATOM     11  C10 UNK     1      37.887  -1.568   8.234  1.00  0.00     0.074 A 
ENDROOT
BRANCH   5  12
ATOM     12  C4  UNK     1      43.716   1.100   8.170  1.00  0.00    -0.002 A 
ATOM     13  C12 UNK     1      44.378   1.887   7.225  1.00  0.00     0.017 A 
ATOM     14  C14 UNK     1      45.746   2.128   7.348  1.00  0.00     0.037 A 
ATOM     15  C15 UNK     1      46.458   1.582   8.417  1.00  0.00     0.065 A 
ATOM     16  C13 UNK     1      45.800   0.795   9.362  1.00  0.00     0.037 A 
ATOM     17  C11 UNK     1      44.432   0.554   9.240  1.00  0.00     0.017 A 
BRANCH  15  18
ATOM     18  O5  UNK     1      47.792   1.817   8.537  1.00  0.00    -0.361 OA
ATOM     19  H10 UNK     1      48.108   2.258   7.729  1.00  0.00     0.217 HD
ENDBRANCH  15  18
ENDBRANCH   5  12
BRANCH   8  20
ATOM     20  O2  UNK     1      37.247   0.554   7.418  1.00  0.00    -0.360 OA
ATOM     21  H8  UNK     1      37.536   1.059   6.642  1.00  0.00     0.217 HD
ENDBRANCH   8  20
BRANCH  10  22
ATOM     22  O4  UNK     1      38.517  -3.718   9.060  1.00  0.00    -0.361 OA
ATOM     23  H9  UNK     1      38.755  -3.843   9.995  1.00  0.00     0.217 HD
ENDBRANCH  10  22
TORSDOF 4
ENDMDL
MODEL 13
REMARK VINA RESULT:      -5.9     16.403     18.642
REMARK  4 active torsions:
REMARK  status: ('A' for Active; 'I' for Inactive)
REMARK    1  A    between atoms: O2_2  and  C7_12 
REMARK    2  A    between atoms: O4_4  and  C9_14 
REMARK    3  A    between atoms: O5_5  and  C15_20 
REMARK    4  A    between atoms: C3_8  and  C4_9 
ROOT
ATOM      1  O1  UNK     1      43.617  -0.106   9.046  1.00  0.00    -0.309 OA
ATOM      2  O3  UNK     1      40.568   2.015   7.371  1.00  0.00    -0.287 OA
ATOM      3  C1  UNK     1      41.234   0.139   8.644  1.00  0.00     0.081 A 
ATOM      4  C2  UNK     1      42.323  -0.537   9.191  1.00  0.00     0.095 A 
ATOM      5  C3  UNK     1      43.850   1.049   8.314  1.00  0.00     0.090 A 
ATOM      6  C5  UNK     1      41.476   1.371   7.876  1.00  0.00     0.190 A 
ATOM      7  C6  UNK     1      42.886   1.791   7.746  1.00  0.00     0.094 A 
ATOM      8  C7  UNK     1      39.937  -0.345   8.825  1.00  0.00     0.085 A 
ATOM      9  C8  UNK     1      42.120  -1.705   9.926  1.00  0.00     0.075 A 
ATOM     10  C9  UNK     1      40.826  -2.194  10.109  1.00  0.00     0.071 A 
ATOM     11  C10 UNK     1      39.737  -1.515   9.559  1.00  0.00     0.074 A 
ENDROOT
BRANCH   5  12
ATOM     12  C4  UNK     1      45.275   1.425   8.225  1.00  0.00    -0.002 A 
ATOM     13  C12 UNK     1      46.185   0.957   9.175  1.00  0.00     0.017 A 
ATOM     14  C14 UNK     1      47.531   1.313   9.090  1.00  0.00     0.037 A 
ATOM     15  C15 UNK     1      47.971   2.139   8.056  1.00  0.00     0.065 A 
ATOM     16  C13 UNK     1      47.065   2.609   7.107  1.00  0.00     0.037 A 
ATOM     17  C11 UNK     1      45.719   2.253   7.190  1.00  0.00     0.017 A 
BRANCH  15  18
ATOM     18  O5  UNK     1      49.284   2.487   7.975  1.00  0.00    -0.361 OA
ATOM     19  H10 UNK     1      49.350   3.456   7.926  1.00  0.00     0.217 HD
ENDBRANCH  15  18
ENDBRANCH   5  12
BRANCH   8  20
ATOM     20  O2  UNK     1      38.841   0.279   8.311  1.00  0.00    -0.360 OA
ATOM     21  H8  UNK     1      38.200  -0.373   7.988  1.00  0.00     0.217 HD
ENDBRANCH   8  20
BRANCH  10  22
ATOM     22  O4  UNK     1      40.625  -3.334  10.826  1.00  0.00    -0.361 OA
ATOM     23  H9  UNK     1      41.488  -3.735  11.030  1.00  0.00     0.217 HD
ENDBRANCH  10  22
TORSDOF 4
ENDMDL
MODEL 14
REMARK VINA RESULT:      -5.9     22.483     26.379
REMARK  4 active torsions:
REMARK  status: ('A' for Active; 'I' for Inactive)
REMARK    1  A    between atoms: O2_2  and  C7_12 
REMARK    2  A    between atoms: O4_4  and  C9_14 
REMARK    3  A    between atoms: O5_5  and  C15_20 
REMARK    4  A    between atoms: C3_8  and  C4_9 
ROOT
ATOM      1  O1  UNK     1      38.823  -9.919   4.943  1.00  0.00    -0.309 OA
ATOM      2  O3  UNK     1      36.270 -10.704   1.866  1.00  0.00    -0.287 OA
ATOM      3  C1  UNK     1      37.281  -9.087   3.261  1.00  0.00     0.081 A 
ATOM      4  C2  UNK     1      38.167  -8.889   4.318  1.00  0.00     0.095 A 
ATOM      5  C3  UNK     1      38.584 -11.214   4.508  1.00  0.00     0.090 A 
ATOM      6  C5  UNK     1      37.033 -10.458   2.790  1.00  0.00     0.190 A 
ATOM      7  C6  UNK     1      37.760 -11.532   3.497  1.00  0.00     0.094 A 
ATOM      8  C7  UNK     1      36.642  -7.999   2.661  1.00  0.00     0.085 A 
ATOM      9  C8  UNK     1      38.421  -7.598   4.783  1.00  0.00     0.075 A 
ATOM     10  C9  UNK     1      37.786  -6.509   4.187  1.00  0.00     0.071 A 
ATOM     11  C10 UNK     1      36.897  -6.709   3.128  1.00  0.00     0.074 A 
ENDROOT
BRANCH   5  12
ATOM     12  C4  UNK     1      39.344 -12.244   5.244  1.00  0.00    -0.002 A 
ATOM     13  C12 UNK     1      39.581 -12.096   6.613  1.00  0.00     0.017 A 
ATOM     14  C14 UNK     1      40.300 -13.069   7.308  1.00  0.00     0.037 A 
ATOM     15  C15 UNK     1      40.783 -14.193   6.637  1.00  0.00     0.065 A 
ATOM     16  C13 UNK     1      40.549 -14.342   5.270  1.00  0.00     0.037 A 
ATOM     17  C11 UNK     1      39.830 -13.370   4.575  1.00  0.00     0.017 A 
BRANCH  15  18
ATOM     18  O5  UNK     1      41.485 -15.140   7.315  1.00  0.00    -0.361 OA
ATOM     19  H10 UNK     1      41.828 -14.750   8.138  1.00  0.00     0.217 HD
ENDBRANCH  15  18
ENDBRANCH   5  12
BRANCH   8  20
ATOM     20  O2  UNK     1      35.768  -8.140   1.626  1.00  0.00    -0.360 OA
ATOM     21  H8  UNK     1      36.094  -8.799   0.994  1.00  0.00     0.217 HD
ENDBRANCH   8  20
BRANCH  10  22
ATOM     22  O4  UNK     1      38.032  -5.248   4.638  1.00  0.00    -0.361 OA
ATOM     23  H9  UNK     1      37.197  -4.748   4.649  1.00  0.00     0.217 HD
ENDBRANCH  10  22
TORSDOF 4
ENDMDL
MODEL 15
REMARK VINA RESULT:      -5.8     15.816     16.750
REMARK  4 active torsions:
REMARK  status: ('A' for Active; 'I' for Inactive)
REMARK    1  A    between atoms: O2_2  and  C7_12 
REMARK    2  A    between atoms: O4_4  and  C9_14 
REMARK    3  A    between atoms: O5_5  and  C15_20 
REMARK    4  A    between atoms: C3_8  and  C4_9 
ROOT
ATOM      1  O1  UNK     1      43.601   1.847   7.475  1.00  0.00    -0.309 OA
ATOM      2  O3  UNK     1      44.033   4.812  10.236  1.00  0.00    -0.287 OA
ATOM      3  C1  UNK     1      45.043   3.457   8.585  1.00  0.00     0.081 A 
ATOM      4  C2  UNK     1      44.826   2.439   7.658  1.00  0.00     0.095 A 
ATOM      5  C3  UNK     1      42.537   2.276   8.254  1.00  0.00     0.090 A 
ATOM      6  C5  UNK     1      43.914   3.922   9.406  1.00  0.00     0.190 A 
ATOM      7  C6  UNK     1      42.619   3.251   9.173  1.00  0.00     0.094 A 
ATOM      8  C7  UNK     1      46.311   4.024   8.728  1.00  0.00     0.085 A 
ATOM      9  C8  UNK     1      45.878   1.982   6.865  1.00  0.00     0.075 A 
ATOM     10  C9  UNK     1      47.147   2.545   7.004  1.00  0.00     0.071 A 
ATOM     11  C10 UNK     1      47.363   3.564   7.935  1.00  0.00     0.074 A 
ENDROOT
BRANCH   5  12
ATOM     12  C4  UNK     1      41.268   1.577   7.972  1.00  0.00    -0.002 A 
ATOM     13  C12 UNK     1      40.211   2.259   7.364  1.00  0.00     0.017 A 
ATOM     14  C14 UNK     1      39.012   1.598   7.099  1.00  0.00     0.037 A 
ATOM     15  C15 UNK     1      38.865   0.254   7.440  1.00  0.00     0.065 A 
ATOM     16  C13 UNK     1      39.918  -0.430   8.048  1.00  0.00     0.037 A 
ATOM     17  C11 UNK     1      41.118   0.230   8.313  1.00  0.00     0.017 A 
BRANCH  15  18
ATOM     18  O5  UNK     1      37.695  -0.390   7.182  1.00  0.00    -0.361 OA
ATOM     19  H10 UNK     1      36.963   0.120   7.571  1.00  0.00     0.217 HD
ENDBRANCH  15  18
ENDBRANCH   5  12
BRANCH   8  20
ATOM     20  O2  UNK     1      46.574   5.020   9.618  1.00  0.00    -0.360 OA
ATOM     21  H8  UNK     1      47.467   5.373   9.479  1.00  0.00     0.217 HD
ENDBRANCH   8  20
BRANCH  10  22
ATOM     22  O4  UNK     1      48.177   2.101   6.232  1.00  0.00    -0.361 OA
ATOM     23  H9  UNK     1      47.886   2.071   5.304  1.00  0.00     0.217 HD
ENDBRANCH  10  22
TORSDOF 4
ENDMDL
MODEL 16
REMARK VINA RESULT:      -5.7     16.563     18.989
REMARK  4 active torsions:
REMARK  status: ('A' for Active; 'I' for Inactive)
REMARK    1  A    between atoms: O2_2  and  C7_12 
REMARK    2  A    between atoms: O4_4  and  C9_14 
REMARK    3  A    between atoms: O5_5  and  C15_20 
REMARK    4  A    between atoms: C3_8  and  C4_9 
ROOT
ATOM      1  O1  UNK     1      41.697   0.414   8.206  1.00  0.00    -0.309 OA
ATOM      2  O3  UNK     1      41.616  -2.652  10.887  1.00  0.00    -0.287 OA
ATOM      3  C1  UNK     1      40.413  -1.271   9.394  1.00  0.00     0.081 A 
ATOM      4  C2  UNK     1      40.512  -0.218   8.488  1.00  0.00     0.095 A 
ATOM      5  C3  UNK     1      42.843  -0.011   8.859  1.00  0.00     0.090 A 
ATOM      6  C5  UNK     1      41.630  -1.732  10.082  1.00  0.00     0.190 A 
ATOM      7  C6  UNK     1      42.879  -1.018   9.746  1.00  0.00     0.094 A 
ATOM      8  C7  UNK     1      39.180  -1.878   9.641  1.00  0.00     0.085 A 
ATOM      9  C8  UNK     1      39.374   0.237   7.821  1.00  0.00     0.075 A 
ATOM     10  C9  UNK     1      38.140  -0.366   8.064  1.00  0.00     0.071 A 
ATOM     11  C10 UNK     1      38.043  -1.421   8.974  1.00  0.00     0.074 A 
ENDROOT
BRANCH   5  12
ATOM     12  C4  UNK     1      44.061   0.732   8.478  1.00  0.00    -0.002 A 
ATOM     13  C12 UNK     1      44.085   1.485   7.302  1.00  0.00     0.017 A 
ATOM     14  C14 UNK     1      45.235   2.187   6.943  1.00  0.00     0.037 A 
ATOM     15  C15 UNK     1      46.366   2.137   7.758  1.00  0.00     0.065 A 
ATOM     16  C13 UNK     1      46.346   1.386   8.932  1.00  0.00     0.037 A 
ATOM     17  C11 UNK     1      45.196   0.684   9.293  1.00  0.00     0.017 A 
BRANCH  15  18
ATOM     18  O5  UNK     1      47.489   2.821   7.406  1.00  0.00    -0.361 OA
ATOM     19  H10 UNK     1      48.093   2.216   6.942  1.00  0.00     0.217 HD
ENDBRANCH  15  18
ENDBRANCH   5  12
BRANCH   8  20
ATOM     20  O2  UNK     1      39.032  -2.911  10.517  1.00  0.00    -0.360 OA
ATOM     21  H8  UNK     1      39.580  -2.770  11.304  1.00  0.00     0.217 HD
ENDBRANCH   8  20
BRANCH  10  22
ATOM     22  O4  UNK     1      37.027   0.075   7.415  1.00  0.00    -0.361 OA
ATOM     23  H9  UNK     1      36.763  -0.589   6.755  1.00  0.00     0.217 HD
ENDBRANCH  10  22
TORSDOF 4
ENDMDL
MODEL 17
REMARK VINA RESULT:      -5.7     14.334     17.825
REMARK  4 active torsions:
REMARK  status: ('A' for Active; 'I' for Inactive)
REMARK    1  A    between atoms: O2_2  and  C7_12 
REMARK    2  A    between atoms: O4_4  and  C9_14 
REMARK    3  A    between atoms: O5_5  and  C15_20 
REMARK    4  A    between atoms: C3_8  and  C4_9 
ROOT
ATOM      1  O1  UNK     1      40.994   2.151   8.710  1.00  0.00    -0.309 OA
ATOM      2  O3  UNK     1      43.482  -0.937   9.648  1.00  0.00    -0.287 OA
ATOM      3  C1  UNK     1      41.388  -0.244   8.798  1.00  0.00     0.081 A 
ATOM      4  C2  UNK     1      40.589   0.857   8.499  1.00  0.00     0.095 A 
ATOM      5  C3  UNK     1      42.252   2.369   9.252  1.00  0.00     0.090 A 
ATOM      6  C5  UNK     1      42.727  -0.017   9.365  1.00  0.00     0.190 A 
ATOM      7  C6  UNK     1      43.116   1.393   9.575  1.00  0.00     0.094 A 
ATOM      8  C7  UNK     1      40.925  -1.540   8.562  1.00  0.00     0.085 A 
ATOM      9  C8  UNK     1      39.317   0.669   7.960  1.00  0.00     0.075 A 
ATOM     10  C9  UNK     1      38.848  -0.624   7.722  1.00  0.00     0.071 A 
ATOM     11  C10 UNK     1      39.650  -1.726   8.023  1.00  0.00     0.074 A 
ENDROOT
BRANCH   5  12
ATOM     12  C4  UNK     1      42.588   3.795   9.432  1.00  0.00    -0.002 A 
ATOM     13  C12 UNK     1      41.629   4.687   9.915  1.00  0.00     0.017 A 
ATOM     14  C14 UNK     1      41.947   6.035  10.084  1.00  0.00     0.037 A 
ATOM     15  C15 UNK     1      43.226   6.494   9.769  1.00  0.00     0.065 A 
ATOM     16  C13 UNK     1      44.186   5.606   9.286  1.00  0.00     0.037 A 
ATOM     17  C11 UNK     1      43.869   4.258   9.117  1.00  0.00     0.017 A 
BRANCH  15  18
ATOM     18  O5  UNK     1      43.536   7.809   9.933  1.00  0.00    -0.361 OA
ATOM     19  H10 UNK     1      44.029   8.116   9.153  1.00  0.00     0.217 HD
ENDBRANCH  15  18
ENDBRANCH   5  12
BRANCH   8  20
ATOM     20  O2  UNK     1      41.667  -2.648   8.836  1.00  0.00    -0.360 OA
ATOM     21  H8  UNK     1      41.106  -3.439   8.845  1.00  0.00     0.217 HD
ENDBRANCH   8  20
BRANCH  10  22
ATOM     22  O4  UNK     1      37.606  -0.811   7.195  1.00  0.00    -0.361 OA
ATOM     23  H9  UNK     1      37.575  -0.407   6.310  1.00  0.00     0.217 HD
ENDBRANCH  10  22
TORSDOF 4
ENDMDL
MODEL 18
REMARK VINA RESULT:      -5.7     22.140     23.151
REMARK  4 active torsions:
REMARK  status: ('A' for Active; 'I' for Inactive)
REMARK    1  A    between atoms: O2_2  and  C7_12 
REMARK    2  A    between atoms: O4_4  and  C9_14 
REMARK    3  A    between atoms: O5_5  and  C15_20 
REMARK    4  A    between atoms: C3_8  and  C4_9 
ROOT
ATOM      1  O1  UNK     1      55.981  -1.069   2.518  1.00  0.00    -0.309 OA
ATOM      2  O3  UNK     1      52.608  -2.250   0.561  1.00  0.00    -0.287 OA
ATOM      3  C1  UNK     1      54.850  -1.519   0.416  1.00  0.00     0.081 A 
ATOM      4  C2  UNK     1      55.969  -1.125   1.147  1.00  0.00     0.095 A 
ATOM      5  C3  UNK     1      54.825  -1.411   3.203  1.00  0.00     0.090 A 
ATOM      6  C5  UNK     1      53.625  -1.893   1.139  1.00  0.00     0.190 A 
ATOM      7  C6  UNK     1      53.687  -1.813   2.613  1.00  0.00     0.094 A 
ATOM      8  C7  UNK     1      54.896  -1.558  -0.979  1.00  0.00     0.085 A 
ATOM      9  C8  UNK     1      57.144  -0.768   0.486  1.00  0.00     0.075 A 
ATOM     10  C9  UNK     1      57.195  -0.805  -0.908  1.00  0.00     0.071 A 
ATOM     11  C10 UNK     1      56.072  -1.199  -1.639  1.00  0.00     0.074 A 
ENDROOT
BRANCH   5  12
ATOM     12  C4  UNK     1      54.949  -1.321   4.671  1.00  0.00    -0.002 A 
ATOM     13  C12 UNK     1      55.696  -0.294   5.251  1.00  0.00     0.017 A 
ATOM     14  C14 UNK     1      55.813  -0.210   6.638  1.00  0.00     0.037 A 
ATOM     15  C15 UNK     1      55.184  -1.153   7.451  1.00  0.00     0.065 A 
ATOM     16  C13 UNK     1      54.438  -2.181   6.875  1.00  0.00     0.037 A 
ATOM     17  C11 UNK     1      54.319  -2.266   5.488  1.00  0.00     0.017 A 
BRANCH  15  18
ATOM     18  O5  UNK     1      55.299  -1.071   8.804  1.00  0.00    -0.361 OA
ATOM     19  H10 UNK     1      54.423  -0.884   9.184  1.00  0.00     0.217 HD
ENDBRANCH  15  18
ENDBRANCH   5  12
BRANCH   8  20
ATOM     20  O2  UNK     1      53.830  -1.936  -1.739  1.00  0.00    -0.360 OA
ATOM     21  H8  UNK     1      54.109  -2.109  -2.652  1.00  0.00     0.217 HD
ENDBRANCH   8  20
BRANCH  10  22
ATOM     22  O4  UNK     1      58.340  -0.457  -1.556  1.00  0.00    -0.361 OA
ATOM     23  H9  UNK     1      58.220  -0.605  -2.510  1.00  0.00     0.217 HD
ENDBRANCH  10  22
TORSDOF 4
ENDMDL
MODEL 19
REMARK VINA RESULT:      -5.6     15.060     18.138
REMARK  4 active torsions:
REMARK  status: ('A' for Active; 'I' for Inactive)
REMARK    1  A    between atoms: O2_2  and  C7_12 
REMARK    2  A    between atoms: O4_4  and  C9_14 
REMARK    3  A    between atoms: O5_5  and  C15_20 
REMARK    4  A    between atoms: C3_8  and  C4_9 
ROOT
ATOM      1  O1  UNK     1      42.166   1.123   9.482  1.00  0.00    -0.309 OA
ATOM      2  O3  UNK     1      39.031   1.029   6.882  1.00  0.00    -0.287 OA
ATOM      3  C1  UNK     1      40.444  -0.164   8.351  1.00  0.00     0.081 A 
ATOM      4  C2  UNK     1      41.521  -0.062   9.229  1.00  0.00     0.095 A 
ATOM      5  C3  UNK     1      41.729   2.265   8.827  1.00  0.00     0.090 A 
ATOM      6  C5  UNK     1      39.971   1.047   7.662  1.00  0.00     0.190 A 
ATOM      7  C6  UNK     1      40.700   2.296   7.966  1.00  0.00     0.094 A 
ATOM      8  C7  UNK     1      39.825  -1.397   8.133  1.00  0.00     0.085 A 
ATOM      9  C8  UNK     1      41.988  -1.194   9.896  1.00  0.00     0.075 A 
ATOM     10  C9  UNK     1      41.373  -2.428   9.682  1.00  0.00     0.071 A 
ATOM     11  C10 UNK     1      40.294  -2.530   8.801  1.00  0.00     0.074 A 
ENDROOT
BRANCH   5  12
ATOM     12  C4  UNK     1      42.488   3.482   9.176  1.00  0.00    -0.002 A 
ATOM     13  C12 UNK     1      41.881   4.500   9.915  1.00  0.00     0.017 A 
ATOM     14  C14 UNK     1      42.597   5.650  10.244  1.00  0.00     0.037 A 
ATOM     15  C15 UNK     1      43.924   5.788   9.834  1.00  0.00     0.065 A 
ATOM     16  C13 UNK     1      44.533   4.774   9.095  1.00  0.00     0.037 A 
ATOM     17  C11 UNK     1      43.817   3.623   8.766  1.00  0.00     0.017 A 
BRANCH  15  18
ATOM     18  O5  UNK     1      44.622   6.910  10.154  1.00  0.00    -0.361 OA
ATOM     19  H10 UNK     1      45.223   6.708  10.892  1.00  0.00     0.217 HD
ENDBRANCH  15  18
ENDBRANCH   5  12
BRANCH   8  20
ATOM     20  O2  UNK     1      38.770  -1.550   7.286  1.00  0.00    -0.360 OA
ATOM     21  H8  UNK     1      39.056  -1.967   6.458  1.00  0.00     0.217 HD
ENDBRANCH   8  20
BRANCH  10  22
ATOM     22  O4  UNK     1      41.825  -3.536  10.331  1.00  0.00    -0.361 OA
ATOM     23  H9  UNK     1      41.073  -4.126  10.512  1.00  0.00     0.217 HD
ENDBRANCH  10  22
TORSDOF 4
ENDMDL
