MODEL 1
REMARK VINA RESULT:      -6.1      0.000      0.000
REMARK  4 active torsions:
REMARK  status: ('A' for Active; 'I' for Inactive)
REMARK    1  A    between atoms: O2_2  and  C7_12 
REMARK    2  A    between atoms: O4_4  and  C9_14 
REMARK    3  A    between atoms: O5_5  and  C15_20 
REMARK    4  A    between atoms: C3_8  and  C4_9 
ROOT
ATOM      1  O1  UNK     1      38.961  22.053  11.022  1.00  0.00    -0.309 OA
ATOM      2  O3  UNK     1      37.795  19.599  14.058  1.00  0.00    -0.287 OA
ATOM      3  C1  UNK     1      39.381  20.080  12.374  1.00  0.00     0.081 A 
ATOM      4  C2  UNK     1      39.723  20.959  11.349  1.00  0.00     0.095 A 
ATOM      5  C3  UNK     1      37.798  22.286  11.739  1.00  0.00     0.090 A 
ATOM      6  C5  UNK     1      38.153  20.329  13.144  1.00  0.00     0.190 A 
ATOM      7  C6  UNK     1      37.367  21.517  12.752  1.00  0.00     0.094 A 
ATOM      8  C7  UNK     1      40.195  18.982  12.664  1.00  0.00     0.085 A 
ATOM      9  C8  UNK     1      40.883  20.747  10.605  1.00  0.00     0.075 A 
ATOM     10  C9  UNK     1      41.700  19.652  10.891  1.00  0.00     0.071 A 
ATOM     11  C10 UNK     1      41.356  18.771  11.918  1.00  0.00     0.074 A 
ENDROOT
BRANCH   5  12
ATOM     12  C4  UNK     1      37.059  23.490  11.309  1.00  0.00    -0.002 A 
ATOM     13  C12 UNK     1      36.037  23.386  10.364  1.00  0.00     0.017 A 
ATOM     14  C14 UNK     1      35.340  24.524   9.957  1.00  0.00     0.037 A 
ATOM     15  C15 UNK     1      35.664  25.770  10.495  1.00  0.00     0.065 A 
ATOM     16  C13 UNK     1      36.685  25.877  11.439  1.00  0.00     0.037 A 
ATOM     17  C11 UNK     1      37.382  24.739  11.846  1.00  0.00     0.017 A 
BRANCH  15  18
ATOM     18  O5  UNK     1      34.984  26.879  10.098  1.00  0.00    -0.361 OA
ATOM     19  H10 UNK     1      34.052  26.642   9.952  1.00  0.00     0.217 HD
ENDBRANCH  15  18
ENDBRANCH   5  12
BRANCH   8  20
ATOM     20  O2  UNK     1      39.906  18.094  13.656  1.00  0.00    -0.360 OA
ATOM     21  H8  UNK     1      40.482  18.242  14.422  1.00  0.00     0.217 HD
ENDBRANCH   8  20
BRANCH  10  22
ATOM     22  O4  UNK     1      42.833  19.442  10.167  1.00  0.00    -0.361 OA
ATOM     23  H9  UNK     1      42.664  18.744   9.511  1.00  0.00     0.217 HD
ENDBRANCH  10  22
TORSDOF 4
ENDMDL
MODEL 2
REMARK VINA RESULT:      -6.0      2.123      6.875
REMARK  4 active torsions:
REMARK  status: ('A' for Active; 'I' for Inactive)
REMARK    1  A    between atoms: O2_2  and  C7_12 
REMARK    2  A    between atoms: O4_4  and  C9_14 
REMARK    3  A    between atoms: O5_5  and  C15_20 
REMARK    4  A    between atoms: C3_8  and  C4_9 
ROOT
ATOM      1  O1  UNK     1      36.681  23.261  10.674  1.00  0.00    -0.309 OA
ATOM      2  O3  UNK     1      34.445  22.776  14.045  1.00  0.00    -0.287 OA
ATOM      3  C1  UNK     1      34.775  23.943  12.017  1.00  0.00     0.081 A 
ATOM      4  C2  UNK     1      35.581  24.055  10.887  1.00  0.00     0.095 A 
ATOM      5  C3  UNK     1      37.006  22.313  11.632  1.00  0.00     0.090 A 
ATOM      6  C5  UNK     1      35.110  22.931  13.031  1.00  0.00     0.190 A 
ATOM      7  C6  UNK     1      36.304  22.104  12.757  1.00  0.00     0.094 A 
ATOM      8  C7  UNK     1      33.667  24.777  12.181  1.00  0.00     0.085 A 
ATOM      9  C8  UNK     1      35.284  25.004   9.909  1.00  0.00     0.075 A 
ATOM     10  C9  UNK     1      34.179  25.841  10.068  1.00  0.00     0.071 A 
ATOM     11  C10 UNK     1      33.372  25.727  11.202  1.00  0.00     0.074 A 
ENDROOT
BRANCH   5  12
ATOM     12  C4  UNK     1      38.200  21.512  11.301  1.00  0.00    -0.002 A 
ATOM     13  C12 UNK     1      38.736  21.548  10.012  1.00  0.00     0.017 A 
ATOM     14  C14 UNK     1      39.864  20.790   9.700  1.00  0.00     0.037 A 
ATOM     15  C15 UNK     1      40.461  19.993  10.676  1.00  0.00     0.065 A 
ATOM     16  C13 UNK     1      39.929  19.953  11.964  1.00  0.00     0.037 A 
ATOM     17  C11 UNK     1      38.801  20.711  12.277  1.00  0.00     0.017 A 
BRANCH  15  18
ATOM     18  O5  UNK     1      41.562  19.253  10.371  1.00  0.00    -0.361 OA
ATOM     19  H10 UNK     1      41.275  18.385  10.037  1.00  0.00     0.217 HD
ENDBRANCH  15  18
ENDBRANCH   5  12
BRANCH   8  20
ATOM     20  O2  UNK     1      32.848  24.707  13.267  1.00  0.00    -0.360 OA
ATOM     21  H8  UNK     1      32.270  25.484  13.306  1.00  0.00     0.217 HD
ENDBRANCH   8  20
BRANCH  10  22
ATOM     22  O4  UNK     1      33.886  26.769   9.116  1.00  0.00    -0.361 OA
ATOM     23  H9  UNK     1      32.924  26.915   9.103  1.00  0.00     0.217 HD
ENDBRANCH  10  22
TORSDOF 4
ENDMDL
MODEL 3
REMARK VINA RESULT:      -5.7      4.290      5.473
REMARK  4 active torsions:
REMARK  status: ('A' for Active; 'I' for Inactive)
REMARK    1  A    between atoms: O2_2  and  C7_12 
REMARK    2  A    between atoms: O4_4  and  C9_14 
REMARK    3  A    between atoms: O5_5  and  C15_20 
REMARK    4  A    between atoms: C3_8  and  C4_9 
ROOT
ATOM      1  O1  UNK     1      41.657  21.479  12.376  1.00  0.00    -0.309 OA
ATOM      2  O3  UNK     1      44.328  18.791  10.878  1.00  0.00    -0.287 OA
ATOM      3  C1  UNK     1      42.331  19.163  12.085  1.00  0.00     0.081 A 
ATOM      4  C2  UNK     1      41.457  20.135  12.568  1.00  0.00     0.095 A 
ATOM      5  C3  UNK     1      42.783  21.885  11.676  1.00  0.00     0.090 A 
ATOM      6  C5  UNK     1      43.522  19.589  11.333  1.00  0.00     0.190 A 
ATOM      7  C6  UNK     1      43.693  21.046  11.155  1.00  0.00     0.094 A 
ATOM      8  C7  UNK     1      42.076  17.809  12.310  1.00  0.00     0.085 A 
ATOM      9  C8  UNK     1      40.320  19.757  13.282  1.00  0.00     0.075 A 
ATOM     10  C9  UNK     1      40.061  18.405  13.510  1.00  0.00     0.071 A 
ATOM     11  C10 UNK     1      40.938  17.433  13.025  1.00  0.00     0.074 A 
ENDROOT
BRANCH   5  12
ATOM     12  C4  UNK     1      42.898  23.348  11.522  1.00  0.00    -0.002 A 
ATOM     13  C12 UNK     1      43.556  23.889  10.415  1.00  0.00     0.017 A 
ATOM     14  C14 UNK     1      43.664  25.272  10.270  1.00  0.00     0.037 A 
ATOM     15  C15 UNK     1      43.115  26.119  11.233  1.00  0.00     0.065 A 
ATOM     16  C13 UNK     1      42.459  25.583  12.340  1.00  0.00     0.037 A 
ATOM     17  C11 UNK     1      42.349  24.200  12.485  1.00  0.00     0.017 A 
BRANCH  15  18
ATOM     18  O5  UNK     1      43.222  27.468  11.091  1.00  0.00    -0.361 OA
ATOM     19  H10 UNK     1      44.159  27.698  10.959  1.00  0.00     0.217 HD
ENDBRANCH  15  18
ENDBRANCH   5  12
BRANCH   8  20
ATOM     20  O2  UNK     1      42.898  16.821  11.858  1.00  0.00    -0.360 OA
ATOM     21  H8  UNK     1      43.245  16.303  12.600  1.00  0.00     0.217 HD
ENDBRANCH   8  20
BRANCH  10  22
ATOM     22  O4  UNK     1      38.952  18.033  14.207  1.00  0.00    -0.361 OA
ATOM     23  H9  UNK     1      38.592  17.218  13.816  1.00  0.00     0.217 HD
ENDBRANCH  10  22
TORSDOF 4
ENDMDL
MODEL 4
REMARK VINA RESULT:      -5.6      2.903      4.816
REMARK  4 active torsions:
REMARK  status: ('A' for Active; 'I' for Inactive)
REMARK    1  A    between atoms: O2_2  and  C7_12 
REMARK    2  A    between atoms: O4_4  and  C9_14 
REMARK    3  A    between atoms: O5_5  and  C15_20 
REMARK    4  A    between atoms: C3_8  and  C4_9 
ROOT
ATOM      1  O1  UNK     1      42.718  21.401  10.664  1.00  0.00    -0.309 OA
ATOM      2  O3  UNK     1      43.358  17.541  11.801  1.00  0.00    -0.287 OA
ATOM      3  C1  UNK     1      44.285  19.591  11.080  1.00  0.00     0.081 A 
ATOM      4  C2  UNK     1      43.996  20.901  10.702  1.00  0.00     0.095 A 
ATOM      5  C3  UNK     1      41.670  20.561  11.010  1.00  0.00     0.090 A 
ATOM      6  C5  UNK     1      43.176  18.700  11.457  1.00  0.00     0.190 A 
ATOM      7  C6  UNK     1      41.821  19.285  11.398  1.00  0.00     0.094 A 
ATOM      8  C7  UNK     1      45.605  19.136  11.101  1.00  0.00     0.085 A 
ATOM      9  C8  UNK     1      45.028  21.767  10.341  1.00  0.00     0.075 A 
ATOM     10  C9  UNK     1      46.349  21.317  10.360  1.00  0.00     0.071 A 
ATOM     11  C10 UNK     1      46.637  20.004  10.738  1.00  0.00     0.074 A 
ENDROOT
BRANCH   5  12
ATOM     12  C4  UNK     1      40.342  21.201  10.941  1.00  0.00    -0.002 A 
ATOM     13  C12 UNK     1      39.489  20.934   9.867  1.00  0.00     0.017 A 
ATOM     14  C14 UNK     1      38.234  21.540   9.802  1.00  0.00     0.037 A 
ATOM     15  C15 UNK     1      37.828  22.414  10.810  1.00  0.00     0.065 A 
ATOM     16  C13 UNK     1      38.677  22.683  11.883  1.00  0.00     0.037 A 
ATOM     17  C11 UNK     1      39.932  22.078  11.949  1.00  0.00     0.017 A 
BRANCH  15  18
ATOM     18  O5  UNK     1      36.604  23.004  10.745  1.00  0.00    -0.361 OA
ATOM     19  H10 UNK     1      36.339  23.279  11.640  1.00  0.00     0.217 HD
ENDBRANCH  15  18
ENDBRANCH   5  12
BRANCH   8  20
ATOM     20  O2  UNK     1      45.939  17.867  11.463  1.00  0.00    -0.360 OA
ATOM     21  H8  UNK     1      46.351  17.862  12.341  1.00  0.00     0.217 HD
ENDBRANCH   8  20
BRANCH  10  22
ATOM     22  O4  UNK     1      47.359  22.160  10.009  1.00  0.00    -0.361 OA
ATOM     23  H9  UNK     1      47.466  22.832  10.704  1.00  0.00     0.217 HD
ENDBRANCH  10  22
TORSDOF 4
ENDMDL
MODEL 5
REMARK VINA RESULT:      -5.6      2.907      4.929
REMARK  4 active torsions:
REMARK  status: ('A' for Active; 'I' for Inactive)
REMARK    1  A    between atoms: O2_2  and  C7_12 
REMARK    2  A    between atoms: O4_4  and  C9_14 
REMARK    3  A    between atoms: O5_5  and  C15_20 
REMARK    4  A    between atoms: C3_8  and  C4_9 
ROOT
ATOM      1  O1  UNK     1      42.728  21.402  10.667  1.00  0.00    -0.309 OA
ATOM      2  O3  UNK     1      43.366  17.543  11.807  1.00  0.00    -0.287 OA
ATOM      3  C1  UNK     1      44.293  19.591  11.081  1.00  0.00     0.081 A 
ATOM      4  C2  UNK     1      44.005  20.901  10.702  1.00  0.00     0.095 A 
ATOM      5  C3  UNK     1      41.679  20.564  11.016  1.00  0.00     0.090 A 
ATOM      6  C5  UNK     1      43.185  18.702  11.462  1.00  0.00     0.190 A 
ATOM      7  C6  UNK     1      41.830  19.287  11.405  1.00  0.00     0.094 A 
ATOM      8  C7  UNK     1      45.613  19.135  11.099  1.00  0.00     0.085 A 
ATOM      9  C8  UNK     1      45.037  21.765  10.338  1.00  0.00     0.075 A 
ATOM     10  C9  UNK     1      46.357  21.314  10.354  1.00  0.00     0.071 A 
ATOM     11  C10 UNK     1      46.645  20.001  10.734  1.00  0.00     0.074 A 
ENDROOT
BRANCH   5  12
ATOM     12  C4  UNK     1      40.352  21.205  10.949  1.00  0.00    -0.002 A 
ATOM     13  C12 UNK     1      39.950  22.094  11.948  1.00  0.00     0.017 A 
ATOM     14  C14 UNK     1      38.695  22.699  11.885  1.00  0.00     0.037 A 
ATOM     15  C15 UNK     1      37.837  22.416  10.822  1.00  0.00     0.065 A 
ATOM     16  C13 UNK     1      38.234  21.528   9.823  1.00  0.00     0.037 A 
ATOM     17  C11 UNK     1      39.489  20.923   9.886  1.00  0.00     0.017 A 
BRANCH  15  18
ATOM     18  O5  UNK     1      36.612  23.006  10.761  1.00  0.00    -0.361 OA
ATOM     19  H10 UNK     1      35.954  22.338  10.501  1.00  0.00     0.217 HD
ENDBRANCH  15  18
ENDBRANCH   5  12
BRANCH   8  20
ATOM     20  O2  UNK     1      45.946  17.866  11.462  1.00  0.00    -0.360 OA
ATOM     21  H8  UNK     1      45.702  17.238  10.764  1.00  0.00     0.217 HD
ENDBRANCH   8  20
BRANCH  10  22
ATOM     22  O4  UNK     1      47.368  22.155  10.000  1.00  0.00    -0.361 OA
ATOM     23  H9  UNK     1      47.941  21.706   9.354  1.00  0.00     0.217 HD
ENDBRANCH  10  22
TORSDOF 4
ENDMDL
MODEL 6
REMARK VINA RESULT:      -5.6      3.826      4.506
REMARK  4 active torsions:
REMARK  status: ('A' for Active; 'I' for Inactive)
REMARK    1  A    between atoms: O2_2  and  C7_12 
REMARK    2  A    between atoms: O4_4  and  C9_14 
REMARK    3  A    between atoms: O5_5  and  C15_20 
REMARK    4  A    between atoms: C3_8  and  C4_9 
ROOT
ATOM      1  O1  UNK     1      42.159  21.107  11.913  1.00  0.00    -0.309 OA
ATOM      2  O3  UNK     1      38.807  20.766  14.203  1.00  0.00    -0.287 OA
ATOM      3  C1  UNK     1      40.584  19.679  13.087  1.00  0.00     0.081 A 
ATOM      4  C2  UNK     1      41.722  19.867  12.306  1.00  0.00     0.095 A 
ATOM      5  C3  UNK     1      41.430  22.219  12.306  1.00  0.00     0.090 A 
ATOM      6  C5  UNK     1      39.813  20.858  13.515  1.00  0.00     0.190 A 
ATOM      7  C6  UNK     1      40.324  22.169  13.064  1.00  0.00     0.094 A 
ATOM      8  C7  UNK     1      40.185  18.393  13.458  1.00  0.00     0.085 A 
ATOM      9  C8  UNK     1      42.471  18.767  11.889  1.00  0.00     0.075 A 
ATOM     10  C9  UNK     1      42.077  17.480  12.257  1.00  0.00     0.071 A 
ATOM     11  C10 UNK     1      40.936  17.293  13.040  1.00  0.00     0.074 A 
ENDROOT
BRANCH   5  12
ATOM     12  C4  UNK     1      41.991  23.501  11.835  1.00  0.00    -0.002 A 
ATOM     13  C12 UNK     1      41.730  24.681  12.533  1.00  0.00     0.017 A 
ATOM     14  C14 UNK     1      42.260  25.892  12.087  1.00  0.00     0.037 A 
ATOM     15  C15 UNK     1      43.053  25.926  10.940  1.00  0.00     0.065 A 
ATOM     16  C13 UNK     1      43.316  24.749  10.239  1.00  0.00     0.037 A 
ATOM     17  C11 UNK     1      42.786  23.538  10.685  1.00  0.00     0.017 A 
BRANCH  15  18
ATOM     18  O5  UNK     1      43.569  27.107  10.505  1.00  0.00    -0.361 OA
ATOM     19  H10 UNK     1      42.840  27.676  10.201  1.00  0.00     0.217 HD
ENDBRANCH  15  18
ENDBRANCH   5  12
BRANCH   8  20
ATOM     20  O2  UNK     1      39.082  18.157  14.221  1.00  0.00    -0.360 OA
ATOM     21  H8  UNK     1      38.306  18.597  13.841  1.00  0.00     0.217 HD
ENDBRANCH   8  20
BRANCH  10  22
ATOM     22  O4  UNK     1      42.806  16.404  11.852  1.00  0.00    -0.361 OA
ATOM     23  H9  UNK     1      43.751  16.596  11.980  1.00  0.00     0.217 HD
ENDBRANCH  10  22
TORSDOF 4
ENDMDL
MODEL 7
REMARK VINA RESULT:      -5.5      3.841      7.880
REMARK  4 active torsions:
REMARK  status: ('A' for Active; 'I' for Inactive)
REMARK    1  A    between atoms: O2_2  and  C7_12 
REMARK    2  A    between atoms: O4_4  and  C9_14 
REMARK    3  A    between atoms: O5_5  and  C15_20 
REMARK    4  A    between atoms: C3_8  and  C4_9 
ROOT
ATOM      1  O1  UNK     1      41.506  22.929  12.197  1.00  0.00    -0.309 OA
ATOM      2  O3  UNK     1      44.668  25.186  10.969  1.00  0.00    -0.287 OA
ATOM      3  C1  UNK     1      42.467  25.129  11.827  1.00  0.00     0.081 A 
ATOM      4  C2  UNK     1      41.424  24.299  12.233  1.00  0.00     0.095 A 
ATOM      5  C3  UNK     1      42.675  22.350  11.728  1.00  0.00     0.090 A 
ATOM      6  C5  UNK     1      43.713  24.518  11.338  1.00  0.00     0.190 A 
ATOM      7  C6  UNK     1      43.749  23.041  11.317  1.00  0.00     0.094 A 
ATOM      8  C7  UNK     1      42.329  26.518  11.886  1.00  0.00     0.085 A 
ATOM      9  C8  UNK     1      40.233  24.853  12.702  1.00  0.00     0.075 A 
ATOM     10  C9  UNK     1      40.090  26.239  12.763  1.00  0.00     0.071 A 
ATOM     11  C10 UNK     1      41.136  27.070  12.355  1.00  0.00     0.074 A 
ENDROOT
BRANCH   5  12
ATOM     12  C4  UNK     1      42.657  20.874  11.738  1.00  0.00    -0.002 A 
ATOM     13  C12 UNK     1      41.444  20.186  11.814  1.00  0.00     0.017 A 
ATOM     14  C14 UNK     1      41.429  18.792  11.824  1.00  0.00     0.037 A 
ATOM     15  C15 UNK     1      42.626  18.079  11.757  1.00  0.00     0.065 A 
ATOM     16  C13 UNK     1      43.840  18.763  11.681  1.00  0.00     0.037 A 
ATOM     17  C11 UNK     1      43.856  20.158  11.671  1.00  0.00     0.017 A 
BRANCH  15  18
ATOM     18  O5  UNK     1      42.610  16.719  11.767  1.00  0.00    -0.361 OA
ATOM     19  H10 UNK     1      42.575  16.398  10.849  1.00  0.00     0.217 HD
ENDBRANCH  15  18
ENDBRANCH   5  12
BRANCH   8  20
ATOM     20  O2  UNK     1      43.317  27.372  11.502  1.00  0.00    -0.360 OA
ATOM     21  H8  UNK     1      44.180  26.930  11.536  1.00  0.00     0.217 HD
ENDBRANCH   8  20
BRANCH  10  22
ATOM     22  O4  UNK     1      38.929  26.784  13.221  1.00  0.00    -0.361 OA
ATOM     23  H9  UNK     1      38.418  26.096  13.682  1.00  0.00     0.217 HD
ENDBRANCH  10  22
TORSDOF 4
ENDMDL
MODEL 8
REMARK VINA RESULT:      -5.5      3.838      7.919
REMARK  4 active torsions:
REMARK  status: ('A' for Active; 'I' for Inactive)
REMARK    1  A    between atoms: O2_2  and  C7_12 
REMARK    2  A    between atoms: O4_4  and  C9_14 
REMARK    3  A    between atoms: O5_5  and  C15_20 
REMARK    4  A    between atoms: C3_8  and  C4_9 
ROOT
ATOM      1  O1  UNK     1      41.506  22.925  12.201  1.00  0.00    -0.309 OA
ATOM      2  O3  UNK     1      44.658  25.190  10.961  1.00  0.00    -0.287 OA
ATOM      3  C1  UNK     1      42.460  25.128  11.826  1.00  0.00     0.081 A 
ATOM      4  C2  UNK     1      41.421  24.295  12.236  1.00  0.00     0.095 A 
ATOM      5  C3  UNK     1      42.675  22.348  11.728  1.00  0.00     0.090 A 
ATOM      6  C5  UNK     1      43.706  24.519  11.333  1.00  0.00     0.190 A 
ATOM      7  C6  UNK     1      43.746  23.043  11.312  1.00  0.00     0.094 A 
ATOM      8  C7  UNK     1      42.319  26.516  11.886  1.00  0.00     0.085 A 
ATOM      9  C8  UNK     1      40.231  24.846  12.710  1.00  0.00     0.075 A 
ATOM     10  C9  UNK     1      40.084  26.232  12.771  1.00  0.00     0.071 A 
ATOM     11  C10 UNK     1      41.126  27.066  12.359  1.00  0.00     0.074 A 
ENDROOT
BRANCH   5  12
ATOM     12  C4  UNK     1      42.661  20.872  11.738  1.00  0.00    -0.002 A 
ATOM     13  C12 UNK     1      43.860  20.159  11.682  1.00  0.00     0.017 A 
ATOM     14  C14 UNK     1      43.847  18.764  11.690  1.00  0.00     0.037 A 
ATOM     15  C15 UNK     1      42.634  18.078  11.755  1.00  0.00     0.065 A 
ATOM     16  C13 UNK     1      41.434  18.788  11.810  1.00  0.00     0.037 A 
ATOM     17  C11 UNK     1      41.447  20.182  11.802  1.00  0.00     0.017 A 
BRANCH  15  18
ATOM     18  O5  UNK     1      42.621  16.718  11.763  1.00  0.00    -0.361 OA
ATOM     19  H10 UNK     1      41.699  16.411  11.727  1.00  0.00     0.217 HD
ENDBRANCH  15  18
ENDBRANCH   5  12
BRANCH   8  20
ATOM     20  O2  UNK     1      43.304  27.372  11.497  1.00  0.00    -0.360 OA
ATOM     21  H8  UNK     1      43.562  27.198  10.579  1.00  0.00     0.217 HD
ENDBRANCH   8  20
BRANCH  10  22
ATOM     22  O4  UNK     1      38.923  26.774  13.232  1.00  0.00    -0.361 OA
ATOM     23  H9  UNK     1      38.219  26.616  12.579  1.00  0.00     0.217 HD
ENDBRANCH  10  22
TORSDOF 4
ENDMDL
MODEL 9
REMARK VINA RESULT:      -5.5      1.819      3.636
REMARK  4 active torsions:
REMARK  status: ('A' for Active; 'I' for Inactive)
REMARK    1  A    between atoms: O2_2  and  C7_12 
REMARK    2  A    between atoms: O4_4  and  C9_14 
REMARK    3  A    between atoms: O5_5  and  C15_20 
REMARK    4  A    between atoms: C3_8  and  C4_9 
ROOT
ATOM      1  O1  UNK     1      39.903  19.835  12.147  1.00  0.00    -0.309 OA
ATOM      2  O3  UNK     1      43.552  20.549  10.482  1.00  0.00    -0.287 OA
ATOM      3  C1  UNK     1      42.181  19.096  11.744  1.00  0.00     0.081 A 
ATOM      4  C2  UNK     1      40.911  18.915  12.286  1.00  0.00     0.095 A 
ATOM      5  C3  UNK     1      40.166  21.001  11.443  1.00  0.00     0.090 A 
ATOM      6  C5  UNK     1      42.461  20.326  10.987  1.00  0.00     0.190 A 
ATOM      7  C6  UNK     1      41.345  21.287  10.868  1.00  0.00     0.094 A 
ATOM      8  C7  UNK     1      43.169  18.124  11.916  1.00  0.00     0.085 A 
ATOM      9  C8  UNK     1      40.619  17.756  13.006  1.00  0.00     0.075 A 
ATOM     10  C9  UNK     1      41.602  16.782  13.182  1.00  0.00     0.071 A 
ATOM     11  C10 UNK     1      42.876  16.966  12.638  1.00  0.00     0.074 A 
ENDROOT
BRANCH   5  12
ATOM     12  C4  UNK     1      39.013  21.917  11.349  1.00  0.00    -0.002 A 
ATOM     13  C12 UNK     1      38.026  21.709  10.383  1.00  0.00     0.017 A 
ATOM     14  C14 UNK     1      36.937  22.576  10.295  1.00  0.00     0.037 A 
ATOM     15  C15 UNK     1      36.831  23.655  11.173  1.00  0.00     0.065 A 
ATOM     16  C13 UNK     1      37.815  23.867  12.138  1.00  0.00     0.037 A 
ATOM     17  C11 UNK     1      38.904  23.000  12.227  1.00  0.00     0.017 A 
BRANCH  15  18
ATOM     18  O5  UNK     1      35.770  24.501  11.085  1.00  0.00    -0.361 OA
ATOM     19  H10 UNK     1      35.297  24.328  10.252  1.00  0.00     0.217 HD
ENDBRANCH  15  18
ENDBRANCH   5  12
BRANCH   8  20
ATOM     20  O2  UNK     1      44.425  18.254  11.406  1.00  0.00    -0.360 OA
ATOM     21  H8  UNK     1      44.926  17.432  11.523  1.00  0.00     0.217 HD
ENDBRANCH   8  20
BRANCH  10  22
ATOM     22  O4  UNK     1      41.321  15.650  13.884  1.00  0.00    -0.361 OA
ATOM     23  H9  UNK     1      40.692  15.867  14.594  1.00  0.00     0.217 HD
ENDBRANCH  10  22
TORSDOF 4
ENDMDL
MODEL 10
REMARK VINA RESULT:      -5.5      2.693      4.104
REMARK  4 active torsions:
REMARK  status: ('A' for Active; 'I' for Inactive)
REMARK    1  A    between atoms: O2_2  and  C7_12 
REMARK    2  A    between atoms: O4_4  and  C9_14 
REMARK    3  A    between atoms: O5_5  and  C15_20 
REMARK    4  A    between atoms: C3_8  and  C4_9 
ROOT
ATOM      1  O1  UNK     1      41.963  22.106  10.956  1.00  0.00    -0.309 OA
ATOM      2  O3  UNK     1      42.568  18.101  11.401  1.00  0.00    -0.287 OA
ATOM      3  C1  UNK     1      43.517  20.245  11.101  1.00  0.00     0.081 A 
ATOM      4  C2  UNK     1      43.239  21.602  10.955  1.00  0.00     0.095 A 
ATOM      5  C3  UNK     1      40.904  21.221  11.100  1.00  0.00     0.090 A 
ATOM      6  C5  UNK     1      42.397  19.304  11.265  1.00  0.00     0.190 A 
ATOM      7  C6  UNK     1      41.043  19.895  11.256  1.00  0.00     0.094 A 
ATOM      8  C7  UNK     1      44.837  19.788  11.094  1.00  0.00     0.085 A 
ATOM      9  C8  UNK     1      44.283  22.515  10.801  1.00  0.00     0.075 A 
ATOM     10  C9  UNK     1      45.603  22.064  10.793  1.00  0.00     0.071 A 
ATOM     11  C10 UNK     1      45.879  20.703  10.938  1.00  0.00     0.074 A 
ENDROOT
BRANCH   5  12
ATOM     12  C4  UNK     1      39.577  21.868  11.093  1.00  0.00    -0.002 A 
ATOM     13  C12 UNK     1      38.628  21.513  10.131  1.00  0.00     0.017 A 
ATOM     14  C14 UNK     1      37.375  22.126  10.125  1.00  0.00     0.037 A 
ATOM     15  C15 UNK     1      37.067  23.095  11.079  1.00  0.00     0.065 A 
ATOM     16  C13 UNK     1      38.012  23.453  12.040  1.00  0.00     0.037 A 
ATOM     17  C11 UNK     1      39.266  22.841  12.047  1.00  0.00     0.017 A 
BRANCH  15  18
ATOM     18  O5  UNK     1      35.844  23.693  11.071  1.00  0.00    -0.361 OA
ATOM     19  H10 UNK     1      35.799  24.306  10.317  1.00  0.00     0.217 HD
ENDBRANCH  15  18
ENDBRANCH   5  12
BRANCH   8  20
ATOM     20  O2  UNK     1      45.160  18.473  11.234  1.00  0.00    -0.360 OA
ATOM     21  H8  UNK     1      44.818  17.958  10.486  1.00  0.00     0.217 HD
ENDBRANCH   8  20
BRANCH  10  22
ATOM     22  O4  UNK     1      46.624  22.952  10.642  1.00  0.00    -0.361 OA
ATOM     23  H9  UNK     1      46.978  23.178  11.520  1.00  0.00     0.217 HD
ENDBRANCH  10  22
TORSDOF 4
ENDMDL
MODEL 11
REMARK VINA RESULT:      -5.5      4.952      8.296
REMARK  4 active torsions:
REMARK  status: ('A' for Active; 'I' for Inactive)
REMARK    1  A    between atoms: O2_2  and  C7_12 
REMARK    2  A    between atoms: O4_4  and  C9_14 
REMARK    3  A    between atoms: O5_5  and  C15_20 
REMARK    4  A    between atoms: C3_8  and  C4_9 
ROOT
ATOM      1  O1  UNK     1      44.311  18.515  11.670  1.00  0.00    -0.309 OA
ATOM      2  O3  UNK     1      40.992  20.696  10.760  1.00  0.00    -0.287 OA
ATOM      3  C1  UNK     1      41.931  18.896  11.969  1.00  0.00     0.081 A 
ATOM      4  C2  UNK     1      43.104  18.194  12.237  1.00  0.00     0.095 A 
ATOM      5  C3  UNK     1      44.361  19.581  10.784  1.00  0.00     0.090 A 
ATOM      6  C5  UNK     1      41.982  20.034  11.038  1.00  0.00     0.190 A 
ATOM      7  C6  UNK     1      43.303  20.338  10.452  1.00  0.00     0.094 A 
ATOM      8  C7  UNK     1      40.730  18.525  12.577  1.00  0.00     0.085 A 
ATOM      9  C8  UNK     1      43.084  17.112  13.118  1.00  0.00     0.075 A 
ATOM     10  C9  UNK     1      41.886  16.737  13.728  1.00  0.00     0.071 A 
ATOM     11  C10 UNK     1      40.711  17.442  13.457  1.00  0.00     0.074 A 
ENDROOT
BRANCH   5  12
ATOM     12  C4  UNK     1      45.707  19.843  10.237  1.00  0.00    -0.002 A 
ATOM     13  C12 UNK     1      46.801  19.094  10.675  1.00  0.00     0.017 A 
ATOM     14  C14 UNK     1      48.073  19.343  10.159  1.00  0.00     0.037 A 
ATOM     15  C15 UNK     1      48.254  20.342   9.202  1.00  0.00     0.065 A 
ATOM     16  C13 UNK     1      47.164  21.092   8.763  1.00  0.00     0.037 A 
ATOM     17  C11 UNK     1      45.892  20.844   9.279  1.00  0.00     0.017 A 
BRANCH  15  18
ATOM     18  O5  UNK     1      49.495  20.585   8.699  1.00  0.00    -0.361 OA
ATOM     19  H10 UNK     1      49.770  19.824   8.158  1.00  0.00     0.217 HD
ENDBRANCH  15  18
ENDBRANCH   5  12
BRANCH   8  20
ATOM     20  O2  UNK     1      39.558  19.179  12.349  1.00  0.00    -0.360 OA
ATOM     21  H8  UNK     1      39.177  18.906  11.499  1.00  0.00     0.217 HD
ENDBRANCH   8  20
BRANCH  10  22
ATOM     22  O4  UNK     1      41.863  15.682  14.588  1.00  0.00    -0.361 OA
ATOM     23  H9  UNK     1      41.067  15.150  14.413  1.00  0.00     0.217 HD
ENDBRANCH  10  22
TORSDOF 4
ENDMDL
MODEL 12
REMARK VINA RESULT:      -5.4      3.397      4.288
REMARK  4 active torsions:
REMARK  status: ('A' for Active; 'I' for Inactive)
REMARK    1  A    between atoms: O2_2  and  C7_12 
REMARK    2  A    between atoms: O4_4  and  C9_14 
REMARK    3  A    between atoms: O5_5  and  C15_20 
REMARK    4  A    between atoms: C3_8  and  C4_9 
ROOT
ATOM      1  O1  UNK     1      42.746  23.436  11.513  1.00  0.00    -0.309 OA
ATOM      2  O3  UNK     1      40.137  20.312  11.333  1.00  0.00    -0.287 OA
ATOM      3  C1  UNK     1      42.349  21.089  11.033  1.00  0.00     0.081 A 
ATOM      4  C2  UNK     1      43.187  22.198  11.118  1.00  0.00     0.095 A 
ATOM      5  C3  UNK     1      41.405  23.588  11.834  1.00  0.00     0.090 A 
ATOM      6  C5  UNK     1      40.928  21.243  11.382  1.00  0.00     0.190 A 
ATOM      7  C6  UNK     1      40.502  22.595  11.799  1.00  0.00     0.094 A 
ATOM      8  C7  UNK     1      42.852  19.852  10.625  1.00  0.00     0.085 A 
ATOM      9  C8  UNK     1      44.538  22.078  10.794  1.00  0.00     0.075 A 
ATOM     10  C9  UNK     1      45.047  20.845  10.386  1.00  0.00     0.071 A 
ATOM     11  C10 UNK     1      44.205  19.733  10.301  1.00  0.00     0.074 A 
ENDROOT
BRANCH   5  12
ATOM     12  C4  UNK     1      41.040  24.956  12.251  1.00  0.00    -0.002 A 
ATOM     13  C12 UNK     1      39.723  25.254  12.606  1.00  0.00     0.017 A 
ATOM     14  C14 UNK     1      39.379  26.547  12.999  1.00  0.00     0.037 A 
ATOM     15  C15 UNK     1      40.350  27.547  13.039  1.00  0.00     0.065 A 
ATOM     16  C13 UNK     1      41.667  27.254  12.684  1.00  0.00     0.037 A 
ATOM     17  C11 UNK     1      42.012  25.960  12.291  1.00  0.00     0.017 A 
BRANCH  15  18
ATOM     18  O5  UNK     1      40.014  28.809  13.422  1.00  0.00    -0.361 OA
ATOM     19  H10 UNK     1      40.764  29.402  13.244  1.00  0.00     0.217 HD
ENDBRANCH  15  18
ENDBRANCH   5  12
BRANCH   8  20
ATOM     20  O2  UNK     1      42.075  18.738  10.527  1.00  0.00    -0.360 OA
ATOM     21  H8  UNK     1      41.219  18.956  10.128  1.00  0.00     0.217 HD
ENDBRANCH   8  20
BRANCH  10  22
ATOM     22  O4  UNK     1      46.365  20.724  10.069  1.00  0.00    -0.361 OA
ATOM     23  H9  UNK     1      46.584  19.779   9.984  1.00  0.00     0.217 HD
ENDBRANCH  10  22
TORSDOF 4
ENDMDL
MODEL 13
REMARK VINA RESULT:      -5.4      4.027      4.854
REMARK  4 active torsions:
REMARK  status: ('A' for Active; 'I' for Inactive)
REMARK    1  A    between atoms: O2_2  and  C7_12 
REMARK    2  A    between atoms: O4_4  and  C9_14 
REMARK    3  A    between atoms: O5_5  and  C15_20 
REMARK    4  A    between atoms: C3_8  and  C4_9 
ROOT
ATOM      1  O1  UNK     1      43.319  21.206  11.790  1.00  0.00    -0.309 OA
ATOM      2  O3  UNK     1      39.620  19.677  12.547  1.00  0.00    -0.287 OA
ATOM      3  C1  UNK     1      41.926  19.267  12.235  1.00  0.00     0.081 A 
ATOM      4  C2  UNK     1      43.161  19.855  11.975  1.00  0.00     0.095 A 
ATOM      5  C3  UNK     1      42.197  22.017  11.859  1.00  0.00     0.090 A 
ATOM      6  C5  UNK     1      40.734  20.126  12.319  1.00  0.00     0.190 A 
ATOM      7  C6  UNK     1      40.956  21.571  12.111  1.00  0.00     0.094 A 
ATOM      8  C7  UNK     1      41.824  17.886  12.416  1.00  0.00     0.085 A 
ATOM      9  C8  UNK     1      44.307  19.064  11.892  1.00  0.00     0.075 A 
ATOM     10  C9  UNK     1      44.212  17.684  12.071  1.00  0.00     0.071 A 
ATOM     11  C10 UNK     1      42.972  17.096  12.332  1.00  0.00     0.074 A 
ENDROOT
BRANCH   5  12
ATOM     12  C4  UNK     1      42.480  23.451  11.652  1.00  0.00    -0.002 A 
ATOM     13  C12 UNK     1      43.381  23.853  10.663  1.00  0.00     0.017 A 
ATOM     14  C14 UNK     1      43.649  25.208  10.469  1.00  0.00     0.037 A 
ATOM     15  C15 UNK     1      43.017  26.166  11.262  1.00  0.00     0.065 A 
ATOM     16  C13 UNK     1      42.118  25.768  12.251  1.00  0.00     0.037 A 
ATOM     17  C11 UNK     1      41.849  24.413  12.446  1.00  0.00     0.017 A 
BRANCH  15  18
ATOM     18  O5  UNK     1      43.279  27.487  11.072  1.00  0.00    -0.361 OA
ATOM     19  H10 UNK     1      43.266  27.938  11.935  1.00  0.00     0.217 HD
ENDBRANCH  15  18
ENDBRANCH   5  12
BRANCH   8  20
ATOM     20  O2  UNK     1      40.641  17.263  12.673  1.00  0.00    -0.360 OA
ATOM     21  H8  UNK     1      40.678  16.804  13.526  1.00  0.00     0.217 HD
ENDBRANCH   8  20
BRANCH  10  22
ATOM     22  O4  UNK     1      45.328  16.909  11.992  1.00  0.00    -0.361 OA
ATOM     23  H9  UNK     1      46.108  17.485  11.911  1.00  0.00     0.217 HD
ENDBRANCH  10  22
TORSDOF 4
ENDMDL
MODEL 14
REMARK VINA RESULT:      -5.4      1.796      3.859
REMARK  4 active torsions:
REMARK  status: ('A' for Active; 'I' for Inactive)
REMARK    1  A    between atoms: O2_2  and  C7_12 
REMARK    2  A    between atoms: O4_4  and  C9_14 
REMARK    3  A    between atoms: O5_5  and  C15_20 
REMARK    4  A    between atoms: C3_8  and  C4_9 
ROOT
ATOM      1  O1  UNK     1      39.584  19.780  12.956  1.00  0.00    -0.309 OA
ATOM      2  O3  UNK     1      42.667  18.996  10.411  1.00  0.00    -0.287 OA
ATOM      3  C1  UNK     1      41.508  18.412  12.385  1.00  0.00     0.081 A 
ATOM      4  C2  UNK     1      40.435  18.734  13.213  1.00  0.00     0.095 A 
ATOM      5  C3  UNK     1      39.810  20.554  11.828  1.00  0.00     0.090 A 
ATOM      6  C5  UNK     1      41.746  19.224  11.182  1.00  0.00     0.190 A 
ATOM      7  C6  UNK     1      40.804  20.339  10.951  1.00  0.00     0.094 A 
ATOM      8  C7  UNK     1      42.341  17.335  12.695  1.00  0.00     0.085 A 
ATOM      9  C8  UNK     1      40.186  17.979  14.359  1.00  0.00     0.075 A 
ATOM     10  C9  UNK     1      41.016  16.902  14.674  1.00  0.00     0.071 A 
ATOM     11  C10 UNK     1      42.092  16.581  13.843  1.00  0.00     0.074 A 
ENDROOT
BRANCH   5  12
ATOM     12  C4  UNK     1      38.835  21.646  11.645  1.00  0.00    -0.002 A 
ATOM     13  C12 UNK     1      38.840  22.744  12.508  1.00  0.00     0.017 A 
ATOM     14  C14 UNK     1      37.917  23.776  12.335  1.00  0.00     0.037 A 
ATOM     15  C15 UNK     1      36.986  23.714  11.298  1.00  0.00     0.065 A 
ATOM     16  C13 UNK     1      36.978  22.618  10.434  1.00  0.00     0.037 A 
ATOM     17  C11 UNK     1      37.900  21.586  10.607  1.00  0.00     0.017 A 
BRANCH  15  18
ATOM     18  O5  UNK     1      36.086  24.720  11.130  1.00  0.00    -0.361 OA
ATOM     19  H10 UNK     1      36.207  25.372  11.842  1.00  0.00     0.217 HD
ENDBRANCH  15  18
ENDBRANCH   5  12
BRANCH   8  20
ATOM     20  O2  UNK     1      43.402  16.980  11.919  1.00  0.00    -0.360 OA
ATOM     21  H8  UNK     1      43.899  17.766  11.643  1.00  0.00     0.217 HD
ENDBRANCH   8  20
BRANCH  10  22
ATOM     22  O4  UNK     1      40.776  16.163  15.792  1.00  0.00    -0.361 OA
ATOM     23  H9  UNK     1      41.603  16.078  16.297  1.00  0.00     0.217 HD
ENDBRANCH  10  22
TORSDOF 4
ENDMDL
MODEL 15
REMARK VINA RESULT:      -5.4      3.926      7.014
REMARK  4 active torsions:
REMARK  status: ('A' for Active; 'I' for Inactive)
REMARK    1  A    between atoms: O2_2  and  C7_12 
REMARK    2  A    between atoms: O4_4  and  C9_14 
REMARK    3  A    between atoms: O5_5  and  C15_20 
REMARK    4  A    between atoms: C3_8  and  C4_9 
ROOT
ATOM      1  O1  UNK     1      44.125  20.115  10.267  1.00  0.00    -0.309 OA
ATOM      2  O3  UNK     1      46.300  17.473  12.479  1.00  0.00    -0.287 OA
ATOM      3  C1  UNK     1      46.268  19.076  10.743  1.00  0.00     0.081 A 
ATOM      4  C2  UNK     1      45.467  19.961  10.025  1.00  0.00     0.095 A 
ATOM      5  C3  UNK     1      43.542  19.348  11.265  1.00  0.00     0.090 A 
ATOM      6  C5  UNK     1      45.656  18.267  11.808  1.00  0.00     0.190 A 
ATOM      7  C6  UNK     1      44.209  18.467  12.028  1.00  0.00     0.094 A 
ATOM      8  C7  UNK     1      47.630  18.961  10.454  1.00  0.00     0.085 A 
ATOM      9  C8  UNK     1      46.024  20.741   9.011  1.00  0.00     0.075 A 
ATOM     10  C9  UNK     1      47.383  20.630   8.718  1.00  0.00     0.071 A 
ATOM     11  C10 UNK     1      48.185  19.741   9.438  1.00  0.00     0.074 A 
ENDROOT
BRANCH   5  12
ATOM     12  C4  UNK     1      42.098  19.596  11.445  1.00  0.00    -0.002 A 
ATOM     13  C12 UNK     1      41.405  18.980  12.489  1.00  0.00     0.017 A 
ATOM     14  C14 UNK     1      40.040  19.215  12.658  1.00  0.00     0.037 A 
ATOM     15  C15 UNK     1      39.364  20.066  11.784  1.00  0.00     0.065 A 
ATOM     16  C13 UNK     1      40.054  20.683  10.740  1.00  0.00     0.037 A 
ATOM     17  C11 UNK     1      41.418  20.449  10.570  1.00  0.00     0.017 A 
BRANCH  15  18
ATOM     18  O5  UNK     1      38.033  20.294  11.949  1.00  0.00    -0.361 OA
ATOM     19  H10 UNK     1      37.784  20.057  12.859  1.00  0.00     0.217 HD
ENDBRANCH  15  18
ENDBRANCH   5  12
BRANCH   8  20
ATOM     20  O2  UNK     1      48.455  18.111  11.125  1.00  0.00    -0.360 OA
ATOM     21  H8  UNK     1      49.319  18.525  11.275  1.00  0.00     0.217 HD
ENDBRANCH   8  20
BRANCH  10  22
ATOM     22  O4  UNK     1      47.930  21.389   7.729  1.00  0.00    -0.361 OA
ATOM     23  H9  UNK     1      48.240  22.229   8.110  1.00  0.00     0.217 HD
ENDBRANCH  10  22
TORSDOF 4
ENDMDL
MODEL 16
REMARK VINA RESULT:      -5.4      4.684      8.812
REMARK  4 active torsions:
REMARK  status: ('A' for Active; 'I' for Inactive)
REMARK    1  A    between atoms: O2_2  and  C7_12 
REMARK    2  A    between atoms: O4_4  and  C9_14 
REMARK    3  A    between atoms: O5_5  and  C15_20 
REMARK    4  A    between atoms: C3_8  and  C4_9 
ROOT
ATOM      1  O1  UNK     1      44.828  22.876  10.652  1.00  0.00    -0.309 OA
ATOM      2  O3  UNK     1      41.250  21.350  11.863  1.00  0.00    -0.287 OA
ATOM      3  C1  UNK     1      42.584  23.265  11.495  1.00  0.00     0.081 A 
ATOM      4  C2  UNK     1      43.830  23.720  11.068  1.00  0.00     0.095 A 
ATOM      5  C3  UNK     1      44.587  21.510  10.667  1.00  0.00     0.090 A 
ATOM      6  C5  UNK     1      42.321  21.818  11.503  1.00  0.00     0.190 A 
ATOM      7  C6  UNK     1      43.428  20.952  11.049  1.00  0.00     0.094 A 
ATOM      8  C7  UNK     1      41.604  24.171  11.907  1.00  0.00     0.085 A 
ATOM      9  C8  UNK     1      44.104  25.088  11.049  1.00  0.00     0.075 A 
ATOM     10  C9  UNK     1      43.129  25.997  11.460  1.00  0.00     0.071 A 
ATOM     11  C10 UNK     1      41.881  25.539  11.889  1.00  0.00     0.074 A 
ENDROOT
BRANCH   5  12
ATOM     12  C4  UNK     1      45.725  20.696  10.195  1.00  0.00    -0.002 A 
ATOM     13  C12 UNK     1      46.155  19.594  10.938  1.00  0.00     0.017 A 
ATOM     14  C14 UNK     1      47.230  18.825  10.493  1.00  0.00     0.037 A 
ATOM     15  C15 UNK     1      47.878  19.155   9.302  1.00  0.00     0.065 A 
ATOM     16  C13 UNK     1      47.452  20.256   8.559  1.00  0.00     0.037 A 
ATOM     17  C11 UNK     1      46.377  21.025   9.004  1.00  0.00     0.017 A 
BRANCH  15  18
ATOM     18  O5  UNK     1      48.928  18.406   8.869  1.00  0.00    -0.361 OA
ATOM     19  H10 UNK     1      49.710  18.978   8.784  1.00  0.00     0.217 HD
ENDBRANCH  15  18
ENDBRANCH   5  12
BRANCH   8  20
ATOM     20  O2  UNK     1      40.372  23.778  12.333  1.00  0.00    -0.360 OA
ATOM     21  H8  UNK     1      40.449  23.196  13.105  1.00  0.00     0.217 HD
ENDBRANCH   8  20
BRANCH  10  22
ATOM     22  O4  UNK     1      43.393  27.332  11.443  1.00  0.00    -0.361 OA
ATOM     23  H9  UNK     1      43.889  27.546  10.633  1.00  0.00     0.217 HD
ENDBRANCH  10  22
TORSDOF 4
ENDMDL
MODEL 17
REMARK VINA RESULT:      -5.4      3.634      8.100
REMARK  4 active torsions:
REMARK  status: ('A' for Active; 'I' for Inactive)
REMARK    1  A    between atoms: O2_2  and  C7_12 
REMARK    2  A    between atoms: O4_4  and  C9_14 
REMARK    3  A    between atoms: O5_5  and  C15_20 
REMARK    4  A    between atoms: C3_8  and  C4_9 
ROOT
ATOM      1  O1  UNK     1      43.409  20.512  10.570  1.00  0.00    -0.309 OA
ATOM      2  O3  UNK     1      42.527  17.168  12.724  1.00  0.00    -0.287 OA
ATOM      3  C1  UNK     1      41.773  19.210  11.805  1.00  0.00     0.081 A 
ATOM      4  C2  UNK     1      42.141  20.328  11.061  1.00  0.00     0.095 A 
ATOM      5  C3  UNK     1      44.366  19.544  10.835  1.00  0.00     0.090 A 
ATOM      6  C5  UNK     1      42.782  18.176  12.080  1.00  0.00     0.190 A 
ATOM      7  C6  UNK     1      44.132  18.421  11.533  1.00  0.00     0.094 A 
ATOM      8  C7  UNK     1      40.466  19.076  12.279  1.00  0.00     0.085 A 
ATOM      9  C8  UNK     1      41.203  21.323  10.784  1.00  0.00     0.075 A 
ATOM     10  C9  UNK     1      39.896  21.193  11.255  1.00  0.00     0.071 A 
ATOM     11  C10 UNK     1      39.528  20.072  12.002  1.00  0.00     0.074 A 
ENDROOT
BRANCH   5  12
ATOM     12  C4  UNK     1      45.692  19.837  10.257  1.00  0.00    -0.002 A 
ATOM     13  C12 UNK     1      45.833  20.842   9.297  1.00  0.00     0.017 A 
ATOM     14  C14 UNK     1      47.086  21.118   8.751  1.00  0.00     0.037 A 
ATOM     15  C15 UNK     1      48.203  20.390   9.162  1.00  0.00     0.065 A 
ATOM     16  C13 UNK     1      48.066  19.385  10.119  1.00  0.00     0.037 A 
ATOM     17  C11 UNK     1      46.813  19.109  10.666  1.00  0.00     0.017 A 
BRANCH  15  18
ATOM     18  O5  UNK     1      49.425  20.660   8.627  1.00  0.00    -0.361 OA
ATOM     19  H10 UNK     1      49.532  20.142   7.810  1.00  0.00     0.217 HD
ENDBRANCH  15  18
ENDBRANCH   5  12
BRANCH   8  20
ATOM     20  O2  UNK     1      40.056  18.002  13.010  1.00  0.00    -0.360 OA
ATOM     21  H8  UNK     1      40.818  17.471  13.289  1.00  0.00     0.217 HD
ENDBRANCH   8  20
BRANCH  10  22
ATOM     22  O4  UNK     1      38.977  22.162  10.987  1.00  0.00    -0.361 OA
ATOM     23  H9  UNK     1      38.482  21.914  10.187  1.00  0.00     0.217 HD
ENDBRANCH  10  22
TORSDOF 4
ENDMDL
MODEL 18
REMARK VINA RESULT:      -5.4      3.096      7.684
REMARK  4 active torsions:
REMARK  status: ('A' for Active; 'I' for Inactive)
REMARK    1  A    between atoms: O2_2  and  C7_12 
REMARK    2  A    between atoms: O4_4  and  C9_14 
REMARK    3  A    between atoms: O5_5  and  C15_20 
REMARK    4  A    between atoms: C3_8  and  C4_9 
ROOT
ATOM      1  O1  UNK     1      42.580  20.315  10.469  1.00  0.00    -0.309 OA
ATOM      2  O3  UNK     1      41.417  18.472  13.911  1.00  0.00    -0.287 OA
ATOM      3  C1  UNK     1      40.801  19.754  12.024  1.00  0.00     0.081 A 
ATOM      4  C2  UNK     1      41.265  20.361  10.860  1.00  0.00     0.095 A 
ATOM      5  C3  UNK     1      43.485  19.641  11.275  1.00  0.00     0.090 A 
ATOM      6  C5  UNK     1      41.756  19.029  12.877  1.00  0.00     0.190 A 
ATOM      7  C6  UNK     1      43.159  19.011  12.415  1.00  0.00     0.094 A 
ATOM      8  C7  UNK     1      39.450  19.832  12.372  1.00  0.00     0.085 A 
ATOM      9  C8  UNK     1      40.380  21.052  10.032  1.00  0.00     0.075 A 
ATOM     10  C9  UNK     1      39.030  21.134  10.375  1.00  0.00     0.071 A 
ATOM     11  C10 UNK     1      38.566  20.525  11.544  1.00  0.00     0.074 A 
ENDROOT
BRANCH   5  12
ATOM     12  C4  UNK     1      44.868  19.649  10.760  1.00  0.00    -0.002 A 
ATOM     13  C12 UNK     1      45.234  20.536   9.745  1.00  0.00     0.017 A 
ATOM     14  C14 UNK     1      46.541  20.542   9.258  1.00  0.00     0.037 A 
ATOM     15  C15 UNK     1      47.487  19.661   9.784  1.00  0.00     0.065 A 
ATOM     16  C13 UNK     1      47.124  18.773  10.797  1.00  0.00     0.037 A 
ATOM     17  C11 UNK     1      45.817  18.767  11.285  1.00  0.00     0.017 A 
BRANCH  15  18
ATOM     18  O5  UNK     1      48.761  19.667   9.307  1.00  0.00    -0.361 OA
ATOM     19  H10 UNK     1      48.920  18.837   8.824  1.00  0.00     0.217 HD
ENDBRANCH  15  18
ENDBRANCH   5  12
BRANCH   8  20
ATOM     20  O2  UNK     1      38.947  19.256  13.499  1.00  0.00    -0.360 OA
ATOM     21  H8  UNK     1      38.217  18.658  13.277  1.00  0.00     0.217 HD
ENDBRANCH   8  20
BRANCH  10  22
ATOM     22  O4  UNK     1      38.163  21.807   9.570  1.00  0.00    -0.361 OA
ATOM     23  H9  UNK     1      37.457  21.200   9.288  1.00  0.00     0.217 HD
ENDBRANCH  10  22
TORSDOF 4
ENDMDL
MODEL 19
REMARK VINA RESULT:      -5.4      3.625      5.083
REMARK  4 active torsions:
REMARK  status: ('A' for Active; 'I' for Inactive)
REMARK    1  A    between atoms: O2_2  and  C7_12 
REMARK    2  A    between atoms: O4_4  and  C9_14 
REMARK    3  A    between atoms: O5_5  and  C15_20 
REMARK    4  A    between atoms: C3_8  and  C4_9 
ROOT
ATOM      1  O1  UNK     1      41.596  23.305  11.662  1.00  0.00    -0.309 OA
ATOM      2  O3  UNK     1      45.612  23.962  11.467  1.00  0.00    -0.287 OA
ATOM      3  C1  UNK     1      43.822  22.440  11.218  1.00  0.00     0.081 A 
ATOM      4  C2  UNK     1      42.440  22.284  11.303  1.00  0.00     0.095 A 
ATOM      5  C3  UNK     1      42.146  24.542  11.961  1.00  0.00     0.090 A 
ATOM      6  C5  UNK     1      44.408  23.754  11.524  1.00  0.00     0.190 A 
ATOM      7  C6  UNK     1      43.459  24.819  11.908  1.00  0.00     0.094 A 
ATOM      8  C7  UNK     1      44.633  21.366  10.846  1.00  0.00     0.085 A 
ATOM      9  C8  UNK     1      41.858  21.049  11.016  1.00  0.00     0.075 A 
ATOM     10  C9  UNK     1      42.664  19.973  10.644  1.00  0.00     0.071 A 
ATOM     11  C10 UNK     1      44.049  20.131  10.560  1.00  0.00     0.074 A 
ENDROOT
BRANCH   5  12
ATOM     12  C4  UNK     1      41.150  25.568  12.329  1.00  0.00    -0.002 A 
ATOM     13  C12 UNK     1      39.836  25.197  12.624  1.00  0.00     0.017 A 
ATOM     14  C14 UNK     1      38.895  26.166  12.971  1.00  0.00     0.037 A 
ATOM     15  C15 UNK     1      39.265  27.510  13.024  1.00  0.00     0.065 A 
ATOM     16  C13 UNK     1      40.576  27.884  12.728  1.00  0.00     0.037 A 
ATOM     17  C11 UNK     1      41.517  26.915  12.382  1.00  0.00     0.017 A 
BRANCH  15  18
ATOM     18  O5  UNK     1      38.347  28.456  13.361  1.00  0.00    -0.361 OA
ATOM     19  H10 UNK     1      38.609  29.305  12.965  1.00  0.00     0.217 HD
ENDBRANCH  15  18
ENDBRANCH   5  12
BRANCH   8  20
ATOM     20  O2  UNK     1      45.987  21.467  10.748  1.00  0.00    -0.360 OA
ATOM     21  H8  UNK     1      46.326  20.856  10.075  1.00  0.00     0.217 HD
ENDBRANCH   8  20
BRANCH  10  22
ATOM     22  O4  UNK     1      42.100  18.766  10.363  1.00  0.00    -0.361 OA
ATOM     23  H9  UNK     1      41.469  18.540  11.068  1.00  0.00     0.217 HD
ENDBRANCH  10  22
TORSDOF 4
ENDMDL
