MODEL 1
REMARK VINA RESULT:      -7.9      0.000      0.000
REMARK  4 active torsions:
REMARK  status: ('A' for Active; 'I' for Inactive)
REMARK    1  A    between atoms: O2_2  and  C7_12 
REMARK    2  A    between atoms: O4_4  and  C9_14 
REMARK    3  A    between atoms: O5_5  and  C15_20 
REMARK    4  A    between atoms: C3_8  and  C4_9 
ROOT
ATOM      1  O1  UNK     1      39.741  15.492  -0.047  1.00  0.00    -0.309 OA
ATOM      2  O3  UNK     1      41.195  16.436  -3.733  1.00  0.00    -0.287 OA
ATOM      3  C1  UNK     1      40.021  17.141  -1.808  1.00  0.00     0.081 A 
ATOM      4  C2  UNK     1      39.552  16.752  -0.555  1.00  0.00     0.095 A 
ATOM      5  C3  UNK     1      40.423  14.564  -0.819  1.00  0.00     0.090 A 
ATOM      6  C5  UNK     1      40.754  16.162  -2.627  1.00  0.00     0.190 A 
ATOM      7  C6  UNK     1      40.929  14.820  -2.036  1.00  0.00     0.094 A 
ATOM      8  C7  UNK     1      39.800  18.439  -2.274  1.00  0.00     0.085 A 
ATOM      9  C8  UNK     1      38.856  17.661   0.242  1.00  0.00     0.075 A 
ATOM     10  C9  UNK     1      38.632  18.959  -0.219  1.00  0.00     0.071 A 
ATOM     11  C10 UNK     1      39.103  19.347  -1.476  1.00  0.00     0.074 A 
ENDROOT
BRANCH   5  12
ATOM     12  C4  UNK     1      40.575  13.244  -0.176  1.00  0.00    -0.002 A 
ATOM     13  C12 UNK     1      40.251  13.079   1.172  1.00  0.00     0.017 A 
ATOM     14  C14 UNK     1      40.395  11.832   1.780  1.00  0.00     0.037 A 
ATOM     15  C15 UNK     1      40.864  10.745   1.041  1.00  0.00     0.065 A 
ATOM     16  C13 UNK     1      41.190  10.907  -0.305  1.00  0.00     0.037 A 
ATOM     17  C11 UNK     1      41.045  12.154  -0.914  1.00  0.00     0.017 A 
BRANCH  15  18
ATOM     18  O5  UNK     1      41.006   9.529   1.635  1.00  0.00    -0.361 OA
ATOM     19  H10 UNK     1      40.492   8.873   1.133  1.00  0.00     0.217 HD
ENDBRANCH  15  18
ENDBRANCH   5  12
BRANCH   8  20
ATOM     20  O2  UNK     1      40.239  18.867  -3.490  1.00  0.00    -0.360 OA
ATOM     21  H8  UNK     1      41.149  19.197  -3.426  1.00  0.00     0.217 HD
ENDBRANCH   8  20
BRANCH  10  22
ATOM     22  O4  UNK     1      37.954  19.849   0.556  1.00  0.00    -0.361 OA
ATOM     23  H9  UNK     1      37.904  20.701   0.089  1.00  0.00     0.217 HD
ENDBRANCH  10  22
TORSDOF 4
ENDMDL
MODEL 2
REMARK VINA RESULT:      -7.9      0.021      1.081
REMARK  4 active torsions:
REMARK  status: ('A' for Active; 'I' for Inactive)
REMARK    1  A    between atoms: O2_2  and  C7_12 
REMARK    2  A    between atoms: O4_4  and  C9_14 
REMARK    3  A    between atoms: O5_5  and  C15_20 
REMARK    4  A    between atoms: C3_8  and  C4_9 
ROOT
ATOM      1  O1  UNK     1      39.744  15.497  -0.066  1.00  0.00    -0.309 OA
ATOM      2  O3  UNK     1      41.214  16.441  -3.747  1.00  0.00    -0.287 OA
ATOM      3  C1  UNK     1      40.032  17.146  -1.826  1.00  0.00     0.081 A 
ATOM      4  C2  UNK     1      39.557  16.758  -0.575  1.00  0.00     0.095 A 
ATOM      5  C3  UNK     1      40.429  14.569  -0.835  1.00  0.00     0.090 A 
ATOM      6  C5  UNK     1      40.768  16.167  -2.642  1.00  0.00     0.190 A 
ATOM      7  C6  UNK     1      40.940  14.824  -2.050  1.00  0.00     0.094 A 
ATOM      8  C7  UNK     1      39.813  18.443  -2.294  1.00  0.00     0.085 A 
ATOM      9  C8  UNK     1      38.858  17.667   0.218  1.00  0.00     0.075 A 
ATOM     10  C9  UNK     1      38.636  18.964  -0.244  1.00  0.00     0.071 A 
ATOM     11  C10 UNK     1      39.112  19.352  -1.499  1.00  0.00     0.074 A 
ENDROOT
BRANCH   5  12
ATOM     12  C4  UNK     1      40.578  13.249  -0.191  1.00  0.00    -0.002 A 
ATOM     13  C12 UNK     1      41.051  12.159  -0.924  1.00  0.00     0.017 A 
ATOM     14  C14 UNK     1      41.191  10.912  -0.315  1.00  0.00     0.037 A 
ATOM     15  C15 UNK     1      40.858  10.751   1.030  1.00  0.00     0.065 A 
ATOM     16  C13 UNK     1      40.384  11.838   1.765  1.00  0.00     0.037 A 
ATOM     17  C11 UNK     1      40.245  13.085   1.157  1.00  0.00     0.017 A 
BRANCH  15  18
ATOM     18  O5  UNK     1      40.994   9.535   1.624  1.00  0.00    -0.361 OA
ATOM     19  H10 UNK     1      41.832   9.518   2.118  1.00  0.00     0.217 HD
ENDBRANCH  15  18
ENDBRANCH   5  12
BRANCH   8  20
ATOM     20  O2  UNK     1      40.257  18.871  -3.508  1.00  0.00    -0.360 OA
ATOM     21  H8  UNK     1      40.973  18.301  -3.828  1.00  0.00     0.217 HD
ENDBRANCH   8  20
BRANCH  10  22
ATOM     22  O4  UNK     1      37.954  19.855   0.528  1.00  0.00    -0.361 OA
ATOM     23  H9  UNK     1      37.140  20.116   0.064  1.00  0.00     0.217 HD
ENDBRANCH  10  22
TORSDOF 4
ENDMDL
MODEL 3
REMARK VINA RESULT:      -7.6      2.398      7.133
REMARK  4 active torsions:
REMARK  status: ('A' for Active; 'I' for Inactive)
REMARK    1  A    between atoms: O2_2  and  C7_12 
REMARK    2  A    between atoms: O4_4  and  C9_14 
REMARK    3  A    between atoms: O5_5  and  C15_20 
REMARK    4  A    between atoms: C3_8  and  C4_9 
ROOT
ATOM      1  O1  UNK     1      40.332  17.004  -1.099  1.00  0.00    -0.309 OA
ATOM      2  O3  UNK     1      36.859  14.917  -0.672  1.00  0.00    -0.287 OA
ATOM      3  C1  UNK     1      39.178  14.867  -1.124  1.00  0.00     0.081 A 
ATOM      4  C2  UNK     1      40.329  15.641  -1.254  1.00  0.00     0.095 A 
ATOM      5  C3  UNK     1      39.134  17.638  -0.807  1.00  0.00     0.090 A 
ATOM      6  C5  UNK     1      37.907  15.534  -0.804  1.00  0.00     0.190 A 
ATOM      7  C6  UNK     1      37.962  17.003  -0.649  1.00  0.00     0.094 A 
ATOM      8  C7  UNK     1      39.234  13.482  -1.292  1.00  0.00     0.085 A 
ATOM      9  C8  UNK     1      41.548  15.032  -1.555  1.00  0.00     0.075 A 
ATOM     10  C9  UNK     1      41.610  13.649  -1.725  1.00  0.00     0.071 A 
ATOM     11  C10 UNK     1      40.455  12.875  -1.594  1.00  0.00     0.074 A 
ENDROOT
BRANCH   5  12
ATOM     12  C4  UNK     1      39.251  19.101  -0.655  1.00  0.00    -0.002 A 
ATOM     13  C12 UNK     1      39.978  19.848  -1.585  1.00  0.00     0.017 A 
ATOM     14  C14 UNK     1      40.089  21.231  -1.441  1.00  0.00     0.037 A 
ATOM     15  C15 UNK     1      39.474  21.872  -0.366  1.00  0.00     0.065 A 
ATOM     16  C13 UNK     1      38.749  21.130   0.566  1.00  0.00     0.037 A 
ATOM     17  C11 UNK     1      38.637  19.747   0.422  1.00  0.00     0.017 A 
BRANCH  15  18
ATOM     18  O5  UNK     1      39.584  23.221  -0.225  1.00  0.00    -0.361 OA
ATOM     19  H10 UNK     1      38.703  23.621  -0.331  1.00  0.00     0.217 HD
ENDBRANCH  15  18
ENDBRANCH   5  12
BRANCH   8  20
ATOM     20  O2  UNK     1      38.138  12.682  -1.174  1.00  0.00    -0.360 OA
ATOM     21  H8  UNK     1      37.668  12.871  -0.347  1.00  0.00     0.217 HD
ENDBRANCH   8  20
BRANCH  10  22
ATOM     22  O4  UNK     1      42.798  13.052  -2.018  1.00  0.00    -0.361 OA
ATOM     23  H9  UNK     1      43.249  12.822  -1.188  1.00  0.00     0.217 HD
ENDBRANCH  10  22
TORSDOF 4
ENDMDL
MODEL 4
REMARK VINA RESULT:      -7.1      1.487      6.703
REMARK  4 active torsions:
REMARK  status: ('A' for Active; 'I' for Inactive)
REMARK    1  A    between atoms: O2_2  and  C7_12 
REMARK    2  A    between atoms: O4_4  and  C9_14 
REMARK    3  A    between atoms: O5_5  and  C15_20 
REMARK    4  A    between atoms: C3_8  and  C4_9 
ROOT
ATOM      1  O1  UNK     1      39.833  14.364   0.196  1.00  0.00    -0.309 OA
ATOM      2  O3  UNK     1      42.286  12.522  -2.486  1.00  0.00    -0.287 OA
ATOM      3  C1  UNK     1      40.997  12.353  -0.512  1.00  0.00     0.081 A 
ATOM      4  C2  UNK     1      40.163  13.043   0.365  1.00  0.00     0.095 A 
ATOM      5  C3  UNK     1      40.359  15.042  -0.893  1.00  0.00     0.090 A 
ATOM      6  C5  UNK     1      41.550  13.066  -1.675  1.00  0.00     0.190 A 
ATOM      7  C6  UNK     1      41.166  14.486  -1.811  1.00  0.00     0.094 A 
ATOM      8  C7  UNK     1      41.299  11.008  -0.291  1.00  0.00     0.085 A 
ATOM      9  C8  UNK     1      39.624  12.389   1.474  1.00  0.00     0.075 A 
ATOM     10  C9  UNK     1      39.923  11.045   1.700  1.00  0.00     0.071 A 
ATOM     11  C10 UNK     1      40.760  10.356   0.820  1.00  0.00     0.074 A 
ENDROOT
BRANCH   5  12
ATOM     12  C4  UNK     1      39.935  16.453  -0.983  1.00  0.00    -0.002 A 
ATOM     13  C12 UNK     1      40.254  17.211  -2.111  1.00  0.00     0.017 A 
ATOM     14  C14 UNK     1      39.854  18.545  -2.195  1.00  0.00     0.037 A 
ATOM     15  C15 UNK     1      39.134  19.124  -1.151  1.00  0.00     0.065 A 
ATOM     16  C13 UNK     1      38.815  18.370  -0.022  1.00  0.00     0.037 A 
ATOM     17  C11 UNK     1      39.214  17.036   0.063  1.00  0.00     0.017 A 
BRANCH  15  18
ATOM     18  O5  UNK     1      38.744  20.425  -1.233  1.00  0.00    -0.361 OA
ATOM     19  H10 UNK     1      38.583  20.647  -2.166  1.00  0.00     0.217 HD
ENDBRANCH  15  18
ENDBRANCH   5  12
BRANCH   8  20
ATOM     20  O2  UNK     1      42.108  10.290  -1.119  1.00  0.00    -0.360 OA
ATOM     21  H8  UNK     1      41.679  10.155  -1.978  1.00  0.00     0.217 HD
ENDBRANCH   8  20
BRANCH  10  22
ATOM     22  O4  UNK     1      39.399  10.405   2.781  1.00  0.00    -0.361 OA
ATOM     23  H9  UNK     1      38.821  11.021   3.264  1.00  0.00     0.217 HD
ENDBRANCH  10  22
TORSDOF 4
ENDMDL
MODEL 5
REMARK VINA RESULT:      -7.1      1.574      6.656
REMARK  4 active torsions:
REMARK  status: ('A' for Active; 'I' for Inactive)
REMARK    1  A    between atoms: O2_2  and  C7_12 
REMARK    2  A    between atoms: O4_4  and  C9_14 
REMARK    3  A    between atoms: O5_5  and  C15_20 
REMARK    4  A    between atoms: C3_8  and  C4_9 
ROOT
ATOM      1  O1  UNK     1      40.146  14.361   0.331  1.00  0.00    -0.309 OA
ATOM      2  O3  UNK     1      41.886  11.843  -2.358  1.00  0.00    -0.287 OA
ATOM      3  C1  UNK     1      40.995  12.146  -0.190  1.00  0.00     0.081 A 
ATOM      4  C2  UNK     1      40.402  13.059   0.680  1.00  0.00     0.095 A 
ATOM      5  C3  UNK     1      40.501  14.787  -0.939  1.00  0.00     0.090 A 
ATOM      6  C5  UNK     1      41.365  12.591  -1.543  1.00  0.00     0.190 A 
ATOM      7  C6  UNK     1      41.071  14.002  -1.868  1.00  0.00     0.094 A 
ATOM      8  C7  UNK     1      41.232  10.832   0.218  1.00  0.00     0.085 A 
ATOM      9  C8  UNK     1      40.040  12.662   1.967  1.00  0.00     0.075 A 
ATOM     10  C9  UNK     1      40.275  11.350   2.380  1.00  0.00     0.071 A 
ATOM     11  C10 UNK     1      40.870  10.436   1.507  1.00  0.00     0.074 A 
ENDROOT
BRANCH   5  12
ATOM     12  C4  UNK     1      40.176  16.201  -1.210  1.00  0.00    -0.002 A 
ATOM     13  C12 UNK     1      39.610  16.996  -0.211  1.00  0.00     0.017 A 
ATOM     14  C14 UNK     1      39.302  18.331  -0.468  1.00  0.00     0.037 A 
ATOM     15  C15 UNK     1      39.559  18.878  -1.725  1.00  0.00     0.065 A 
ATOM     16  C13 UNK     1      40.123  18.087  -2.726  1.00  0.00     0.037 A 
ATOM     17  C11 UNK     1      40.432  16.751  -2.470  1.00  0.00     0.017 A 
BRANCH  15  18
ATOM     18  O5  UNK     1      39.258  20.181  -1.976  1.00  0.00    -0.361 OA
ATOM     19  H10 UNK     1      39.347  20.347  -2.930  1.00  0.00     0.217 HD
ENDBRANCH  15  18
ENDBRANCH   5  12
BRANCH   8  20
ATOM     20  O2  UNK     1      41.808   9.903  -0.594  1.00  0.00    -0.360 OA
ATOM     21  H8  UNK     1      42.227  10.331  -1.357  1.00  0.00     0.217 HD
ENDBRANCH   8  20
BRANCH  10  22
ATOM     22  O4  UNK     1      39.923  10.959   3.635  1.00  0.00    -0.361 OA
ATOM     23  H9  UNK     1      39.267  11.584   3.989  1.00  0.00     0.217 HD
ENDBRANCH  10  22
TORSDOF 4
ENDMDL
MODEL 6
REMARK VINA RESULT:      -6.9      1.279      2.804
REMARK  4 active torsions:
REMARK  status: ('A' for Active; 'I' for Inactive)
REMARK    1  A    between atoms: O2_2  and  C7_12 
REMARK    2  A    between atoms: O4_4  and  C9_14 
REMARK    3  A    between atoms: O5_5  and  C15_20 
REMARK    4  A    between atoms: C3_8  and  C4_9 
ROOT
ATOM      1  O1  UNK     1      40.608  15.201  -1.950  1.00  0.00    -0.309 OA
ATOM      2  O3  UNK     1      38.919  18.109   0.349  1.00  0.00    -0.287 OA
ATOM      3  C1  UNK     1      39.884  17.508  -1.722  1.00  0.00     0.081 A 
ATOM      4  C2  UNK     1      40.452  16.468  -2.454  1.00  0.00     0.095 A 
ATOM      5  C3  UNK     1      40.189  14.950  -0.653  1.00  0.00     0.090 A 
ATOM      6  C5  UNK     1      39.428  17.244  -0.349  1.00  0.00     0.190 A 
ATOM      7  C6  UNK     1      39.621  15.866   0.148  1.00  0.00     0.094 A 
ATOM      8  C7  UNK     1      39.749  18.778  -2.287  1.00  0.00     0.085 A 
ATOM      9  C8  UNK     1      40.890  16.691  -3.760  1.00  0.00     0.075 A 
ATOM     10  C9  UNK     1      40.758  17.958  -4.328  1.00  0.00     0.071 A 
ATOM     11  C10 UNK     1      40.189  19.000  -3.593  1.00  0.00     0.074 A 
ENDROOT
BRANCH   5  12
ATOM     12  C4  UNK     1      40.398  13.557  -0.214  1.00  0.00    -0.002 A 
ATOM     13  C12 UNK     1      40.053  13.170   1.083  1.00  0.00     0.017 A 
ATOM     14  C14 UNK     1      40.252  11.853   1.498  1.00  0.00     0.037 A 
ATOM     15  C15 UNK     1      40.796  10.918   0.617  1.00  0.00     0.065 A 
ATOM     16  C13 UNK     1      41.142  11.301  -0.679  1.00  0.00     0.037 A 
ATOM     17  C11 UNK     1      40.944  12.618  -1.094  1.00  0.00     0.017 A 
BRANCH  15  18
ATOM     18  O5  UNK     1      40.990   9.634   1.022  1.00  0.00    -0.361 OA
ATOM     19  H10 UNK     1      40.659   9.538   1.931  1.00  0.00     0.217 HD
ENDBRANCH  15  18
ENDBRANCH   5  12
BRANCH   8  20
ATOM     20  O2  UNK     1      39.200  19.827  -1.614  1.00  0.00    -0.360 OA
ATOM     21  H8  UNK     1      39.149  20.608  -2.186  1.00  0.00     0.217 HD
ENDBRANCH   8  20
BRANCH  10  22
ATOM     22  O4  UNK     1      41.185  18.180  -5.602  1.00  0.00    -0.361 OA
ATOM     23  H9  UNK     1      40.506  18.690  -6.078  1.00  0.00     0.217 HD
ENDBRANCH  10  22
TORSDOF 4
ENDMDL
MODEL 7
REMARK VINA RESULT:      -6.7      1.542      6.791
REMARK  4 active torsions:
REMARK  status: ('A' for Active; 'I' for Inactive)
REMARK    1  A    between atoms: O2_2  and  C7_12 
REMARK    2  A    between atoms: O4_4  and  C9_14 
REMARK    3  A    between atoms: O5_5  and  C15_20 
REMARK    4  A    between atoms: C3_8  and  C4_9 
ROOT
ATOM      1  O1  UNK     1      40.283  14.118   0.661  1.00  0.00    -0.309 OA
ATOM      2  O3  UNK     1      41.576  10.739  -1.211  1.00  0.00    -0.287 OA
ATOM      3  C1  UNK     1      40.855  11.762   0.793  1.00  0.00     0.081 A 
ATOM      4  C2  UNK     1      40.418  12.952   1.371  1.00  0.00     0.095 A 
ATOM      5  C3  UNK     1      40.605  14.112  -0.688  1.00  0.00     0.090 A 
ATOM      6  C5  UNK     1      41.188  11.748  -0.640  1.00  0.00     0.190 A 
ATOM      7  C6  UNK     1      41.029  13.029  -1.358  1.00  0.00     0.094 A 
ATOM      8  C7  UNK     1      40.973  10.603   1.564  1.00  0.00     0.085 A 
ATOM      9  C8  UNK     1      40.093  12.991   2.727  1.00  0.00     0.075 A 
ATOM     10  C9  UNK     1      40.209  11.837   3.502  1.00  0.00     0.071 A 
ATOM     11  C10 UNK     1      40.649  10.645   2.921  1.00  0.00     0.074 A 
ENDROOT
BRANCH   5  12
ATOM     12  C4  UNK     1      40.418  15.415  -1.355  1.00  0.00    -0.002 A 
ATOM     13  C12 UNK     1      40.825  15.591  -2.679  1.00  0.00     0.017 A 
ATOM     14  C14 UNK     1      40.650  16.823  -3.309  1.00  0.00     0.037 A 
ATOM     15  C15 UNK     1      40.066  17.884  -2.616  1.00  0.00     0.065 A 
ATOM     16  C13 UNK     1      39.659  17.712  -1.294  1.00  0.00     0.037 A 
ATOM     17  C11 UNK     1      39.834  16.480  -0.663  1.00  0.00     0.017 A 
BRANCH  15  18
ATOM     18  O5  UNK     1      39.896  19.086  -3.231  1.00  0.00    -0.361 OA
ATOM     19  H10 UNK     1      39.163  19.013  -3.867  1.00  0.00     0.217 HD
ENDBRANCH  15  18
ENDBRANCH   5  12
BRANCH   8  20
ATOM     20  O2  UNK     1      41.395   9.416   1.048  1.00  0.00    -0.360 OA
ATOM     21  H8  UNK     1      40.647   8.919   0.683  1.00  0.00     0.217 HD
ENDBRANCH   8  20
BRANCH  10  22
ATOM     22  O4  UNK     1      39.894  11.872   4.826  1.00  0.00    -0.361 OA
ATOM     23  H9  UNK     1      40.305  12.656   5.228  1.00  0.00     0.217 HD
ENDBRANCH  10  22
TORSDOF 4
ENDMDL
MODEL 8
REMARK VINA RESULT:      -5.6     10.275     12.170
REMARK  4 active torsions:
REMARK  status: ('A' for Active; 'I' for Inactive)
REMARK    1  A    between atoms: O2_2  and  C7_12 
REMARK    2  A    between atoms: O4_4  and  C9_14 
REMARK    3  A    between atoms: O5_5  and  C15_20 
REMARK    4  A    between atoms: C3_8  and  C4_9 
ROOT
ATOM      1  O1  UNK     1      46.157  11.251  -7.885  1.00  0.00    -0.309 OA
ATOM      2  O3  UNK     1      47.917   7.772  -9.067  1.00  0.00    -0.287 OA
ATOM      3  C1  UNK     1      45.967   9.105  -9.007  1.00  0.00     0.081 A 
ATOM      4  C2  UNK     1      45.428  10.315  -8.574  1.00  0.00     0.095 A 
ATOM      5  C3  UNK     1      47.486  10.974  -7.600  1.00  0.00     0.090 A 
ATOM      6  C5  UNK     1      47.379   8.812  -8.715  1.00  0.00     0.190 A 
ATOM      7  C6  UNK     1      48.120   9.850  -7.969  1.00  0.00     0.094 A 
ATOM      8  C7  UNK     1      45.178   8.189  -9.706  1.00  0.00     0.085 A 
ATOM      9  C8  UNK     1      44.093  10.618  -8.840  1.00  0.00     0.075 A 
ATOM     10  C9  UNK     1      43.300   9.706  -9.537  1.00  0.00     0.071 A 
ATOM     11  C10 UNK     1      43.841   8.494  -9.969  1.00  0.00     0.074 A 
ENDROOT
BRANCH   5  12
ATOM     12  C4  UNK     1      48.177  12.049  -6.861  1.00  0.00    -0.002 A 
ATOM     13  C12 UNK     1      49.161  12.814  -7.491  1.00  0.00     0.017 A 
ATOM     14  C14 UNK     1      49.814  13.829  -6.792  1.00  0.00     0.037 A 
ATOM     15  C15 UNK     1      49.485  14.083  -5.461  1.00  0.00     0.065 A 
ATOM     16  C13 UNK     1      48.503  13.321  -4.828  1.00  0.00     0.037 A 
ATOM     17  C11 UNK     1      47.849  12.306  -5.527  1.00  0.00     0.017 A 
BRANCH  15  18
ATOM     18  O5  UNK     1      50.123  15.073  -4.779  1.00  0.00    -0.361 OA
ATOM     19  H10 UNK     1      50.830  14.678  -4.239  1.00  0.00     0.217 HD
ENDBRANCH  15  18
ENDBRANCH   5  12
BRANCH   8  20
ATOM     20  O2  UNK     1      45.657   6.994 -10.149  1.00  0.00    -0.360 OA
ATOM     21  H8  UNK     1      44.936   6.353 -10.245  1.00  0.00     0.217 HD
ENDBRANCH   8  20
BRANCH  10  22
ATOM     22  O4  UNK     1      41.996   9.999  -9.798  1.00  0.00    -0.361 OA
ATOM     23  H9  UNK     1      41.846   9.947 -10.758  1.00  0.00     0.217 HD
ENDBRANCH  10  22
TORSDOF 4
ENDMDL
MODEL 9
REMARK VINA RESULT:      -5.6     10.278     12.138
REMARK  4 active torsions:
REMARK  status: ('A' for Active; 'I' for Inactive)
REMARK    1  A    between atoms: O2_2  and  C7_12 
REMARK    2  A    between atoms: O4_4  and  C9_14 
REMARK    3  A    between atoms: O5_5  and  C15_20 
REMARK    4  A    between atoms: C3_8  and  C4_9 
ROOT
ATOM      1  O1  UNK     1      46.162  11.247  -7.886  1.00  0.00    -0.309 OA
ATOM      2  O3  UNK     1      47.929   7.778  -9.089  1.00  0.00    -0.287 OA
ATOM      3  C1  UNK     1      45.975   9.105  -9.016  1.00  0.00     0.081 A 
ATOM      4  C2  UNK     1      45.434  10.311  -8.577  1.00  0.00     0.095 A 
ATOM      5  C3  UNK     1      47.493  10.973  -7.607  1.00  0.00     0.090 A 
ATOM      6  C5  UNK     1      47.389   8.815  -8.731  1.00  0.00     0.190 A 
ATOM      7  C6  UNK     1      48.129   9.852  -7.982  1.00  0.00     0.094 A 
ATOM      8  C7  UNK     1      45.187   8.189  -9.717  1.00  0.00     0.085 A 
ATOM      9  C8  UNK     1      44.096  10.611  -8.836  1.00  0.00     0.075 A 
ATOM     10  C9  UNK     1      43.304   9.700  -9.535  1.00  0.00     0.071 A 
ATOM     11  C10 UNK     1      43.848   8.491  -9.974  1.00  0.00     0.074 A 
ENDROOT
BRANCH   5  12
ATOM     12  C4  UNK     1      48.182  12.047  -6.865  1.00  0.00    -0.002 A 
ATOM     13  C12 UNK     1      47.850  12.306  -5.534  1.00  0.00     0.017 A 
ATOM     14  C14 UNK     1      48.502  13.322  -4.834  1.00  0.00     0.037 A 
ATOM     15  C15 UNK     1      49.488  14.082  -5.464  1.00  0.00     0.065 A 
ATOM     16  C13 UNK     1      49.822  13.826  -6.793  1.00  0.00     0.037 A 
ATOM     17  C11 UNK     1      49.171  12.810  -7.494  1.00  0.00     0.017 A 
BRANCH  15  18
ATOM     18  O5  UNK     1      50.123  15.073  -4.781  1.00  0.00    -0.361 OA
ATOM     19  H10 UNK     1      49.551  15.859  -4.763  1.00  0.00     0.217 HD
ENDBRANCH  15  18
ENDBRANCH   5  12
BRANCH   8  20
ATOM     20  O2  UNK     1      45.668   6.998 -10.167  1.00  0.00    -0.360 OA
ATOM     21  H8  UNK     1      45.133   6.265  -9.826  1.00  0.00     0.217 HD
ENDBRANCH   8  20
BRANCH  10  22
ATOM     22  O4  UNK     1      41.998   9.989  -9.790  1.00  0.00    -0.361 OA
ATOM     23  H9  UNK     1      41.698  10.670  -9.163  1.00  0.00     0.217 HD
ENDBRANCH  10  22
TORSDOF 4
ENDMDL
