MODEL 1
REMARK VINA RESULT:      -7.9      0.000      0.000
REMARK  4 active torsions:
REMARK  status: ('A' for Active; 'I' for Inactive)
REMARK    1  A    between atoms: O2_2  and  C7_12 
REMARK    2  A    between atoms: O4_4  and  C9_14 
REMARK    3  A    between atoms: O5_5  and  C15_20 
REMARK    4  A    between atoms: C3_8  and  C4_9 
ROOT
ATOM      1  O1  UNK     1      39.748  15.507  -0.056  1.00  0.00    -0.309 OA
ATOM      2  O3  UNK     1      41.220  16.431  -3.741  1.00  0.00    -0.287 OA
ATOM      3  C1  UNK     1      40.042  17.148  -1.822  1.00  0.00     0.081 A 
ATOM      4  C2  UNK     1      39.566  16.766  -0.569  1.00  0.00     0.095 A 
ATOM      5  C3  UNK     1      40.428  14.573  -0.823  1.00  0.00     0.090 A 
ATOM      6  C5  UNK     1      40.773  16.163  -2.635  1.00  0.00     0.190 A 
ATOM      7  C6  UNK     1      40.940  14.822  -2.039  1.00  0.00     0.094 A 
ATOM      8  C7  UNK     1      39.829  18.445  -2.294  1.00  0.00     0.085 A 
ATOM      9  C8  UNK     1      38.873  17.682   0.222  1.00  0.00     0.075 A 
ATOM     10  C9  UNK     1      38.656  18.979  -0.245  1.00  0.00     0.071 A 
ATOM     11  C10 UNK     1      39.133  19.360  -1.501  1.00  0.00     0.074 A 
ENDROOT
BRANCH   5  12
ATOM     12  C4  UNK     1      40.572  13.255  -0.174  1.00  0.00    -0.002 A 
ATOM     13  C12 UNK     1      40.249  13.097   1.175  1.00  0.00     0.017 A 
ATOM     14  C14 UNK     1      40.386  11.852   1.788  1.00  0.00     0.037 A 
ATOM     15  C15 UNK     1      40.845  10.759   1.053  1.00  0.00     0.065 A 
ATOM     16  C13 UNK     1      41.169  10.913  -0.295  1.00  0.00     0.037 A 
ATOM     17  C11 UNK     1      41.032  12.158  -0.909  1.00  0.00     0.017 A 
BRANCH  15  18
ATOM     18  O5  UNK     1      40.979   9.544   1.651  1.00  0.00    -0.361 OA
ATOM     19  H10 UNK     1      41.313   9.674   2.555  1.00  0.00     0.217 HD
ENDBRANCH  15  18
ENDBRANCH   5  12
BRANCH   8  20
ATOM     20  O2  UNK     1      40.274  18.868  -3.510  1.00  0.00    -0.360 OA
ATOM     21  H8  UNK     1      40.550  18.112  -4.051  1.00  0.00     0.217 HD
ENDBRANCH   8  20
BRANCH  10  22
ATOM     22  O4  UNK     1      37.979  19.875   0.525  1.00  0.00    -0.361 OA
ATOM     23  H9  UNK     1      38.209  19.725   1.459  1.00  0.00     0.217 HD
ENDBRANCH  10  22
TORSDOF 4
ENDMDL
MODEL 2
REMARK VINA RESULT:      -7.8      0.005      1.080
REMARK  4 active torsions:
REMARK  status: ('A' for Active; 'I' for Inactive)
REMARK    1  A    between atoms: O2_2  and  C7_12 
REMARK    2  A    between atoms: O4_4  and  C9_14 
REMARK    3  A    between atoms: O5_5  and  C15_20 
REMARK    4  A    between atoms: C3_8  and  C4_9 
ROOT
ATOM      1  O1  UNK     1      39.751  15.508  -0.058  1.00  0.00    -0.309 OA
ATOM      2  O3  UNK     1      41.212  16.431  -3.747  1.00  0.00    -0.287 OA
ATOM      3  C1  UNK     1      40.040  17.149  -1.825  1.00  0.00     0.081 A 
ATOM      4  C2  UNK     1      39.568  16.767  -0.571  1.00  0.00     0.095 A 
ATOM      5  C3  UNK     1      40.428  14.573  -0.827  1.00  0.00     0.090 A 
ATOM      6  C5  UNK     1      40.768  16.164  -2.640  1.00  0.00     0.190 A 
ATOM      7  C6  UNK     1      40.937  14.822  -2.044  1.00  0.00     0.094 A 
ATOM      8  C7  UNK     1      39.825  18.446  -2.297  1.00  0.00     0.085 A 
ATOM      9  C8  UNK     1      38.876  17.682   0.222  1.00  0.00     0.075 A 
ATOM     10  C9  UNK     1      38.658  18.979  -0.244  1.00  0.00     0.071 A 
ATOM     11  C10 UNK     1      39.132  19.360  -1.502  1.00  0.00     0.074 A 
ENDROOT
BRANCH   5  12
ATOM     12  C4  UNK     1      40.574  13.255  -0.178  1.00  0.00    -0.002 A 
ATOM     13  C12 UNK     1      41.030  12.158  -0.912  1.00  0.00     0.017 A 
ATOM     14  C14 UNK     1      41.167  10.913  -0.299  1.00  0.00     0.037 A 
ATOM     15  C15 UNK     1      40.847  10.760   1.051  1.00  0.00     0.065 A 
ATOM     16  C13 UNK     1      40.389  11.854   1.786  1.00  0.00     0.037 A 
ATOM     17  C11 UNK     1      40.253  13.099   1.174  1.00  0.00     0.017 A 
BRANCH  15  18
ATOM     18  O5  UNK     1      40.979   9.545   1.648  1.00  0.00    -0.361 OA
ATOM     19  H10 UNK     1      41.427   8.939   1.032  1.00  0.00     0.217 HD
ENDBRANCH  15  18
ENDBRANCH   5  12
BRANCH   8  20
ATOM     20  O2  UNK     1      40.267  18.867  -3.514  1.00  0.00    -0.360 OA
ATOM     21  H8  UNK     1      41.153  19.253  -3.438  1.00  0.00     0.217 HD
ENDBRANCH   8  20
BRANCH  10  22
ATOM     22  O4  UNK     1      37.984  19.875   0.527  1.00  0.00    -0.361 OA
ATOM     23  H9  UNK     1      37.192  19.444   0.893  1.00  0.00     0.217 HD
ENDBRANCH  10  22
TORSDOF 4
ENDMDL
MODEL 3
REMARK VINA RESULT:      -7.6      2.386      7.132
REMARK  4 active torsions:
REMARK  status: ('A' for Active; 'I' for Inactive)
REMARK    1  A    between atoms: O2_2  and  C7_12 
REMARK    2  A    between atoms: O4_4  and  C9_14 
REMARK    3  A    between atoms: O5_5  and  C15_20 
REMARK    4  A    between atoms: C3_8  and  C4_9 
ROOT
ATOM      1  O1  UNK     1      40.338  16.991  -1.131  1.00  0.00    -0.309 OA
ATOM      2  O3  UNK     1      36.870  14.905  -0.663  1.00  0.00    -0.287 OA
ATOM      3  C1  UNK     1      39.185  14.853  -1.132  1.00  0.00     0.081 A 
ATOM      4  C2  UNK     1      40.335  15.627  -1.277  1.00  0.00     0.095 A 
ATOM      5  C3  UNK     1      39.141  17.626  -0.834  1.00  0.00     0.090 A 
ATOM      6  C5  UNK     1      37.915  15.522  -0.807  1.00  0.00     0.190 A 
ATOM      7  C6  UNK     1      37.971  16.991  -0.663  1.00  0.00     0.094 A 
ATOM      8  C7  UNK     1      39.241  13.467  -1.292  1.00  0.00     0.085 A 
ATOM      9  C8  UNK     1      41.551  15.017  -1.583  1.00  0.00     0.075 A 
ATOM     10  C9  UNK     1      41.613  13.633  -1.744  1.00  0.00     0.071 A 
ATOM     11  C10 UNK     1      40.459  12.859  -1.599  1.00  0.00     0.074 A 
ENDROOT
BRANCH   5  12
ATOM     12  C4  UNK     1      39.259  19.091  -0.693  1.00  0.00    -0.002 A 
ATOM     13  C12 UNK     1      39.997  19.828  -1.621  1.00  0.00     0.017 A 
ATOM     14  C14 UNK     1      40.108  21.212  -1.487  1.00  0.00     0.037 A 
ATOM     15  C15 UNK     1      39.481  21.863  -0.424  1.00  0.00     0.065 A 
ATOM     16  C13 UNK     1      38.744  21.130   0.505  1.00  0.00     0.037 A 
ATOM     17  C11 UNK     1      38.632  19.746   0.371  1.00  0.00     0.017 A 
BRANCH  15  18
ATOM     18  O5  UNK     1      39.591  23.213  -0.293  1.00  0.00    -0.361 OA
ATOM     19  H10 UNK     1      40.124  23.558  -1.030  1.00  0.00     0.217 HD
ENDBRANCH  15  18
ENDBRANCH   5  12
BRANCH   8  20
ATOM     20  O2  UNK     1      38.147  12.667  -1.160  1.00  0.00    -0.360 OA
ATOM     21  H8  UNK     1      37.485  12.884  -1.835  1.00  0.00     0.217 HD
ENDBRANCH   8  20
BRANCH  10  22
ATOM     22  O4  UNK     1      42.799  13.035  -2.042  1.00  0.00    -0.361 OA
ATOM     23  H9  UNK     1      42.999  12.372  -1.359  1.00  0.00     0.217 HD
ENDBRANCH  10  22
TORSDOF 4
ENDMDL
MODEL 4
REMARK VINA RESULT:      -7.2      1.495      6.712
REMARK  4 active torsions:
REMARK  status: ('A' for Active; 'I' for Inactive)
REMARK    1  A    between atoms: O2_2  and  C7_12 
REMARK    2  A    between atoms: O4_4  and  C9_14 
REMARK    3  A    between atoms: O5_5  and  C15_20 
REMARK    4  A    between atoms: C3_8  and  C4_9 
ROOT
ATOM      1  O1  UNK     1      39.827  14.316   0.209  1.00  0.00    -0.309 OA
ATOM      2  O3  UNK     1      42.320  12.480  -2.439  1.00  0.00    -0.287 OA
ATOM      3  C1  UNK     1      41.003  12.307  -0.484  1.00  0.00     0.081 A 
ATOM      4  C2  UNK     1      40.156  12.995   0.382  1.00  0.00     0.095 A 
ATOM      5  C3  UNK     1      40.369  14.996  -0.871  1.00  0.00     0.090 A 
ATOM      6  C5  UNK     1      41.573  13.022  -1.637  1.00  0.00     0.190 A 
ATOM      7  C6  UNK     1      41.190  14.442  -1.777  1.00  0.00     0.094 A 
ATOM      8  C7  UNK     1      41.303  10.962  -0.261  1.00  0.00     0.085 A 
ATOM      9  C8  UNK     1      39.601  12.340   1.481  1.00  0.00     0.075 A 
ATOM     10  C9  UNK     1      39.897  10.996   1.710  1.00  0.00     0.071 A 
ATOM     11  C10 UNK     1      40.747  10.308   0.841  1.00  0.00     0.074 A 
ENDROOT
BRANCH   5  12
ATOM     12  C4  UNK     1      39.946  16.407  -0.964  1.00  0.00    -0.002 A 
ATOM     13  C12 UNK     1      40.219  17.147  -2.117  1.00  0.00     0.017 A 
ATOM     14  C14 UNK     1      39.819  18.480  -2.205  1.00  0.00     0.037 A 
ATOM     15  C15 UNK     1      39.145  19.079  -1.140  1.00  0.00     0.065 A 
ATOM     16  C13 UNK     1      38.872  18.343   0.013  1.00  0.00     0.037 A 
ATOM     17  C11 UNK     1      39.271  17.010   0.101  1.00  0.00     0.017 A 
BRANCH  15  18
ATOM     18  O5  UNK     1      38.757  20.380  -1.226  1.00  0.00    -0.361 OA
ATOM     19  H10 UNK     1      39.134  20.768  -2.034  1.00  0.00     0.217 HD
ENDBRANCH  15  18
ENDBRANCH   5  12
BRANCH   8  20
ATOM     20  O2  UNK     1      42.124  10.246  -1.078  1.00  0.00    -0.360 OA
ATOM     21  H8  UNK     1      42.908   9.947  -0.592  1.00  0.00     0.217 HD
ENDBRANCH   8  20
BRANCH  10  22
ATOM     22  O4  UNK     1      39.358  10.353   2.782  1.00  0.00    -0.361 OA
ATOM     23  H9  UNK     1      38.569   9.862   2.491  1.00  0.00     0.217 HD
ENDBRANCH  10  22
TORSDOF 4
ENDMDL
MODEL 5
REMARK VINA RESULT:      -7.2      1.495      6.634
REMARK  4 active torsions:
REMARK  status: ('A' for Active; 'I' for Inactive)
REMARK    1  A    between atoms: O2_2  and  C7_12 
REMARK    2  A    between atoms: O4_4  and  C9_14 
REMARK    3  A    between atoms: O5_5  and  C15_20 
REMARK    4  A    between atoms: C3_8  and  C4_9 
ROOT
ATOM      1  O1  UNK     1      39.833  14.322   0.229  1.00  0.00    -0.309 OA
ATOM      2  O3  UNK     1      42.308  12.480  -2.432  1.00  0.00    -0.287 OA
ATOM      3  C1  UNK     1      41.003  12.311  -0.470  1.00  0.00     0.081 A 
ATOM      4  C2  UNK     1      40.162  13.001   0.401  1.00  0.00     0.095 A 
ATOM      5  C3  UNK     1      40.369  15.000  -0.855  1.00  0.00     0.090 A 
ATOM      6  C5  UNK     1      41.566  13.024  -1.627  1.00  0.00     0.190 A 
ATOM      7  C6  UNK     1      41.184  14.445  -1.766  1.00  0.00     0.094 A 
ATOM      8  C7  UNK     1      41.302  10.965  -0.246  1.00  0.00     0.085 A 
ATOM      9  C8  UNK     1      39.613  12.347   1.504  1.00  0.00     0.075 A 
ATOM     10  C9  UNK     1      39.909  11.003   1.733  1.00  0.00     0.071 A 
ATOM     11  C10 UNK     1      40.753  10.313   0.859  1.00  0.00     0.074 A 
ENDROOT
BRANCH   5  12
ATOM     12  C4  UNK     1      39.947  16.411  -0.947  1.00  0.00    -0.002 A 
ATOM     13  C12 UNK     1      39.278  17.015   0.119  1.00  0.00     0.017 A 
ATOM     14  C14 UNK     1      38.878  18.349   0.031  1.00  0.00     0.037 A 
ATOM     15  C15 UNK     1      39.147  19.083  -1.124  1.00  0.00     0.065 A 
ATOM     16  C13 UNK     1      39.814  18.483  -2.192  1.00  0.00     0.037 A 
ATOM     17  C11 UNK     1      40.214  17.149  -2.104  1.00  0.00     0.017 A 
BRANCH  15  18
ATOM     18  O5  UNK     1      38.756  20.383  -1.210  1.00  0.00    -0.361 OA
ATOM     19  H10 UNK     1      39.001  20.841  -0.387  1.00  0.00     0.217 HD
ENDBRANCH  15  18
ENDBRANCH   5  12
BRANCH   8  20
ATOM     20  O2  UNK     1      42.117  10.248  -1.068  1.00  0.00    -0.360 OA
ATOM     21  H8  UNK     1      41.607   9.850  -1.790  1.00  0.00     0.217 HD
ENDBRANCH   8  20
BRANCH  10  22
ATOM     22  O4  UNK     1      39.375  10.362   2.809  1.00  0.00    -0.361 OA
ATOM     23  H9  UNK     1      39.730  10.761   3.622  1.00  0.00     0.217 HD
ENDBRANCH  10  22
TORSDOF 4
ENDMDL
MODEL 6
REMARK VINA RESULT:      -6.9      1.270      2.794
REMARK  4 active torsions:
REMARK  status: ('A' for Active; 'I' for Inactive)
REMARK    1  A    between atoms: O2_2  and  C7_12 
REMARK    2  A    between atoms: O4_4  and  C9_14 
REMARK    3  A    between atoms: O5_5  and  C15_20 
REMARK    4  A    between atoms: C3_8  and  C4_9 
ROOT
ATOM      1  O1  UNK     1      40.605  15.196  -1.936  1.00  0.00    -0.309 OA
ATOM      2  O3  UNK     1      38.907  18.104   0.358  1.00  0.00    -0.287 OA
ATOM      3  C1  UNK     1      39.877  17.502  -1.711  1.00  0.00     0.081 A 
ATOM      4  C2  UNK     1      40.448  16.462  -2.441  1.00  0.00     0.095 A 
ATOM      5  C3  UNK     1      40.183  14.946  -0.638  1.00  0.00     0.090 A 
ATOM      6  C5  UNK     1      39.419  17.239  -0.338  1.00  0.00     0.190 A 
ATOM      7  C6  UNK     1      39.612  15.861   0.161  1.00  0.00     0.094 A 
ATOM      8  C7  UNK     1      39.742  18.772  -2.277  1.00  0.00     0.085 A 
ATOM      9  C8  UNK     1      40.889  16.685  -3.745  1.00  0.00     0.075 A 
ATOM     10  C9  UNK     1      40.756  17.952  -4.315  1.00  0.00     0.071 A 
ATOM     11  C10 UNK     1      40.184  18.994  -3.582  1.00  0.00     0.074 A 
ENDROOT
BRANCH   5  12
ATOM     12  C4  UNK     1      40.393  13.553  -0.198  1.00  0.00    -0.002 A 
ATOM     13  C12 UNK     1      40.070  13.172   1.106  1.00  0.00     0.017 A 
ATOM     14  C14 UNK     1      40.270  11.856   1.522  1.00  0.00     0.037 A 
ATOM     15  C15 UNK     1      40.793  10.915   0.635  1.00  0.00     0.065 A 
ATOM     16  C13 UNK     1      41.118  11.292  -0.668  1.00  0.00     0.037 A 
ATOM     17  C11 UNK     1      40.918  12.608  -1.085  1.00  0.00     0.017 A 
BRANCH  15  18
ATOM     18  O5  UNK     1      40.988   9.632   1.041  1.00  0.00    -0.361 OA
ATOM     19  H10 UNK     1      41.597   9.631   1.801  1.00  0.00     0.217 HD
ENDBRANCH  15  18
ENDBRANCH   5  12
BRANCH   8  20
ATOM     20  O2  UNK     1      39.190  19.821  -1.605  1.00  0.00    -0.360 OA
ATOM     21  H8  UNK     1      39.583  19.903  -0.722  1.00  0.00     0.217 HD
ENDBRANCH   8  20
BRANCH  10  22
ATOM     22  O4  UNK     1      41.185  18.173  -5.588  1.00  0.00    -0.361 OA
ATOM     23  H9  UNK     1      40.477  18.615  -6.088  1.00  0.00     0.217 HD
ENDBRANCH  10  22
TORSDOF 4
ENDMDL
MODEL 7
REMARK VINA RESULT:      -6.1     16.016     17.864
REMARK  4 active torsions:
REMARK  status: ('A' for Active; 'I' for Inactive)
REMARK    1  A    between atoms: O2_2  and  C7_12 
REMARK    2  A    between atoms: O4_4  and  C9_14 
REMARK    3  A    between atoms: O5_5  and  C15_20 
REMARK    4  A    between atoms: C3_8  and  C4_9 
ROOT
ATOM      1  O1  UNK     1      44.218   1.671   7.489  1.00  0.00    -0.309 OA
ATOM      2  O3  UNK     1      45.753   0.661  11.125  1.00  0.00    -0.287 OA
ATOM      3  C1  UNK     1      46.152   1.483   8.946  1.00  0.00     0.081 A 
ATOM      4  C2  UNK     1      45.562   1.810   7.727  1.00  0.00     0.095 A 
ATOM      5  C3  UNK     1      43.415   1.174   8.505  1.00  0.00     0.090 A 
ATOM      6  C5  UNK     1      45.302   0.965  10.030  1.00  0.00     0.190 A 
ATOM      7  C6  UNK     1      43.863   0.831   9.723  1.00  0.00     0.094 A 
ATOM      8  C7  UNK     1      47.526   1.646   9.133  1.00  0.00     0.085 A 
ATOM      9  C8  UNK     1      46.345   2.305   6.684  1.00  0.00     0.075 A 
ATOM     10  C9  UNK     1      47.718   2.470   6.865  1.00  0.00     0.071 A 
ATOM     11  C10 UNK     1      48.308   2.140   8.088  1.00  0.00     0.074 A 
ENDROOT
BRANCH   5  12
ATOM     12  C4  UNK     1      41.987   1.070   8.145  1.00  0.00    -0.002 A 
ATOM     13  C12 UNK     1      41.289  -0.116   8.378  1.00  0.00     0.017 A 
ATOM     14  C14 UNK     1      39.940  -0.214   8.037  1.00  0.00     0.037 A 
ATOM     15  C15 UNK     1      39.285   0.874   7.460  1.00  0.00     0.065 A 
ATOM     16  C13 UNK     1      39.980   2.061   7.225  1.00  0.00     0.037 A 
ATOM     17  C11 UNK     1      41.329   2.159   7.566  1.00  0.00     0.017 A 
BRANCH  15  18
ATOM     18  O5  UNK     1      37.970   0.778   7.127  1.00  0.00    -0.361 OA
ATOM     19  H10 UNK     1      37.771   1.436   6.437  1.00  0.00     0.217 HD
ENDBRANCH  15  18
ENDBRANCH   5  12
BRANCH   8  20
ATOM     20  O2  UNK     1      48.150   1.341  10.305  1.00  0.00    -0.360 OA
ATOM     21  H8  UNK     1      48.116   2.096  10.913  1.00  0.00     0.217 HD
ENDBRANCH   8  20
BRANCH  10  22
ATOM     22  O4  UNK     1      48.485   2.952   5.849  1.00  0.00    -0.361 OA
ATOM     23  H9  UNK     1      49.412   2.703   6.007  1.00  0.00     0.217 HD
ENDBRANCH  10  22
TORSDOF 4
ENDMDL
MODEL 8
REMARK VINA RESULT:      -6.1     16.015     17.860
REMARK  4 active torsions:
REMARK  status: ('A' for Active; 'I' for Inactive)
REMARK    1  A    between atoms: O2_2  and  C7_12 
REMARK    2  A    between atoms: O4_4  and  C9_14 
REMARK    3  A    between atoms: O5_5  and  C15_20 
REMARK    4  A    between atoms: C3_8  and  C4_9 
ROOT
ATOM      1  O1  UNK     1      44.217   1.672   7.488  1.00  0.00    -0.309 OA
ATOM      2  O3  UNK     1      45.749   0.663  11.126  1.00  0.00    -0.287 OA
ATOM      3  C1  UNK     1      46.150   1.484   8.947  1.00  0.00     0.081 A 
ATOM      4  C2  UNK     1      45.561   1.811   7.727  1.00  0.00     0.095 A 
ATOM      5  C3  UNK     1      43.413   1.176   8.504  1.00  0.00     0.090 A 
ATOM      6  C5  UNK     1      45.299   0.967  10.031  1.00  0.00     0.190 A 
ATOM      7  C6  UNK     1      43.861   0.833   9.722  1.00  0.00     0.094 A 
ATOM      8  C7  UNK     1      47.524   1.647   9.135  1.00  0.00     0.085 A 
ATOM      9  C8  UNK     1      46.345   2.305   6.685  1.00  0.00     0.075 A 
ATOM     10  C9  UNK     1      47.718   2.469   6.867  1.00  0.00     0.071 A 
ATOM     11  C10 UNK     1      48.307   2.141   8.090  1.00  0.00     0.074 A 
ENDROOT
BRANCH   5  12
ATOM     12  C4  UNK     1      41.986   1.072   8.142  1.00  0.00    -0.002 A 
ATOM     13  C12 UNK     1      41.327   2.160   7.565  1.00  0.00     0.017 A 
ATOM     14  C14 UNK     1      39.978   2.062   7.225  1.00  0.00     0.037 A 
ATOM     15  C15 UNK     1      39.283   0.875   7.459  1.00  0.00     0.065 A 
ATOM     16  C13 UNK     1      39.938  -0.213   8.036  1.00  0.00     0.037 A 
ATOM     17  C11 UNK     1      41.287  -0.116   8.376  1.00  0.00     0.017 A 
BRANCH  15  18
ATOM     18  O5  UNK     1      37.967   0.780   7.128  1.00  0.00    -0.361 OA
ATOM     19  H10 UNK     1      37.662   1.644   6.801  1.00  0.00     0.217 HD
ENDBRANCH  15  18
ENDBRANCH   5  12
BRANCH   8  20
ATOM     20  O2  UNK     1      48.147   1.343  10.307  1.00  0.00    -0.360 OA
ATOM     21  H8  UNK     1      47.732   1.817  11.045  1.00  0.00     0.217 HD
ENDBRANCH   8  20
BRANCH  10  22
ATOM     22  O4  UNK     1      48.486   2.951   5.851  1.00  0.00    -0.361 OA
ATOM     23  H9  UNK     1      49.294   2.414   5.784  1.00  0.00     0.217 HD
ENDBRANCH  10  22
TORSDOF 4
ENDMDL
MODEL 9
REMARK VINA RESULT:      -6.0     12.820     15.670
REMARK  4 active torsions:
REMARK  status: ('A' for Active; 'I' for Inactive)
REMARK    1  A    between atoms: O2_2  and  C7_12 
REMARK    2  A    between atoms: O4_4  and  C9_14 
REMARK    3  A    between atoms: O5_5  and  C15_20 
REMARK    4  A    between atoms: C3_8  and  C4_9 
ROOT
ATOM      1  O1  UNK     1      38.905  22.089  11.015  1.00  0.00    -0.309 OA
ATOM      2  O3  UNK     1      37.720  19.655  14.060  1.00  0.00    -0.287 OA
ATOM      3  C1  UNK     1      39.316  20.123  12.381  1.00  0.00     0.081 A 
ATOM      4  C2  UNK     1      39.663  20.996  11.353  1.00  0.00     0.095 A 
ATOM      5  C3  UNK     1      37.737  22.327  11.724  1.00  0.00     0.090 A 
ATOM      6  C5  UNK     1      38.083  20.378  13.144  1.00  0.00     0.190 A 
ATOM      7  C6  UNK     1      37.301  21.564  12.740  1.00  0.00     0.094 A 
ATOM      8  C7  UNK     1      40.127  19.027  12.683  1.00  0.00     0.085 A 
ATOM      9  C8  UNK     1      40.828  20.778  10.617  1.00  0.00     0.075 A 
ATOM     10  C9  UNK     1      41.641  19.684  10.913  1.00  0.00     0.071 A 
ATOM     11  C10 UNK     1      41.291  18.810  11.944  1.00  0.00     0.074 A 
ENDROOT
BRANCH   5  12
ATOM     12  C4  UNK     1      37.002  23.529  11.283  1.00  0.00    -0.002 A 
ATOM     13  C12 UNK     1      35.963  23.416  10.358  1.00  0.00     0.017 A 
ATOM     14  C14 UNK     1      35.269  24.552   9.941  1.00  0.00     0.037 A 
ATOM     15  C15 UNK     1      35.613  25.805  10.448  1.00  0.00     0.065 A 
ATOM     16  C13 UNK     1      36.652  25.922  11.371  1.00  0.00     0.037 A 
ATOM     17  C11 UNK     1      37.345  24.786  11.789  1.00  0.00     0.017 A 
BRANCH  15  18
ATOM     18  O5  UNK     1      34.937  26.913  10.040  1.00  0.00    -0.361 OA
ATOM     19  H10 UNK     1      34.007  26.673   9.880  1.00  0.00     0.217 HD
ENDBRANCH  15  18
ENDBRANCH   5  12
BRANCH   8  20
ATOM     20  O2  UNK     1      39.831  18.145  13.678  1.00  0.00    -0.360 OA
ATOM     21  H8  UNK     1      39.183  17.492  13.372  1.00  0.00     0.217 HD
ENDBRANCH   8  20
BRANCH  10  22
ATOM     22  O4  UNK     1      42.779  19.468  10.196  1.00  0.00    -0.361 OA
ATOM     23  H9  UNK     1      43.451  19.076  10.781  1.00  0.00     0.217 HD
ENDBRANCH  10  22
TORSDOF 4
ENDMDL
MODEL 10
REMARK VINA RESULT:      -6.0     12.626     15.185
REMARK  4 active torsions:
REMARK  status: ('A' for Active; 'I' for Inactive)
REMARK    1  A    between atoms: O2_2  and  C7_12 
REMARK    2  A    between atoms: O4_4  and  C9_14 
REMARK    3  A    between atoms: O5_5  and  C15_20 
REMARK    4  A    between atoms: C3_8  and  C4_9 
ROOT
ATOM      1  O1  UNK     1      36.649  23.285  10.673  1.00  0.00    -0.309 OA
ATOM      2  O3  UNK     1      34.458  22.855  14.081  1.00  0.00    -0.287 OA
ATOM      3  C1  UNK     1      34.764  23.992  12.032  1.00  0.00     0.081 A 
ATOM      4  C2  UNK     1      35.555  24.085  10.889  1.00  0.00     0.095 A 
ATOM      5  C3  UNK     1      36.984  22.349  11.639  1.00  0.00     0.090 A 
ATOM      6  C5  UNK     1      35.110  22.993  13.056  1.00  0.00     0.190 A 
ATOM      7  C6  UNK     1      36.297  22.158  12.777  1.00  0.00     0.094 A 
ATOM      8  C7  UNK     1      33.661  24.832  12.199  1.00  0.00     0.085 A 
ATOM      9  C8  UNK     1      35.248  25.022   9.903  1.00  0.00     0.075 A 
ATOM     10  C9  UNK     1      34.147  25.864  10.065  1.00  0.00     0.071 A 
ATOM     11  C10 UNK     1      33.356  25.770  11.212  1.00  0.00     0.074 A 
ENDROOT
BRANCH   5  12
ATOM     12  C4  UNK     1      38.171  21.539  11.304  1.00  0.00    -0.002 A 
ATOM     13  C12 UNK     1      38.691  21.559  10.007  1.00  0.00     0.017 A 
ATOM     14  C14 UNK     1      39.813  20.793   9.691  1.00  0.00     0.037 A 
ATOM     15  C15 UNK     1      40.418  20.004  10.669  1.00  0.00     0.065 A 
ATOM     16  C13 UNK     1      39.901  19.981  11.964  1.00  0.00     0.037 A 
ATOM     17  C11 UNK     1      38.780  20.747  12.282  1.00  0.00     0.017 A 
BRANCH  15  18
ATOM     18  O5  UNK     1      41.512  19.256  10.359  1.00  0.00    -0.361 OA
ATOM     19  H10 UNK     1      41.244  18.324  10.281  1.00  0.00     0.217 HD
ENDBRANCH  15  18
ENDBRANCH   5  12
BRANCH   8  20
ATOM     20  O2  UNK     1      32.857  24.780  13.297  1.00  0.00    -0.360 OA
ATOM     21  H8  UNK     1      32.380  23.936  13.328  1.00  0.00     0.217 HD
ENDBRANCH   8  20
BRANCH  10  22
ATOM     22  O4  UNK     1      33.844  26.780   9.104  1.00  0.00    -0.361 OA
ATOM     23  H9  UNK     1      32.882  26.926   9.099  1.00  0.00     0.217 HD
ENDBRANCH  10  22
TORSDOF 4
ENDMDL
MODEL 11
REMARK VINA RESULT:      -5.9     15.742     18.220
REMARK  4 active torsions:
REMARK  status: ('A' for Active; 'I' for Inactive)
REMARK    1  A    between atoms: O2_2  and  C7_12 
REMARK    2  A    between atoms: O4_4  and  C9_14 
REMARK    3  A    between atoms: O5_5  and  C15_20 
REMARK    4  A    between atoms: C3_8  and  C4_9 
ROOT
ATOM      1  O1  UNK     1      43.086   1.385   8.100  1.00  0.00    -0.309 OA
ATOM      2  O3  UNK     1      41.546  -1.728  10.230  1.00  0.00    -0.287 OA
ATOM      3  C1  UNK     1      41.148   0.079   8.760  1.00  0.00     0.081 A 
ATOM      4  C2  UNK     1      41.739   1.125   8.056  1.00  0.00     0.095 A 
ATOM      5  C3  UNK     1      43.890   0.574   8.887  1.00  0.00     0.090 A 
ATOM      6  C5  UNK     1      41.998  -0.790   9.588  1.00  0.00     0.190 A 
ATOM      7  C6  UNK     1      43.440  -0.467   9.605  1.00  0.00     0.094 A 
ATOM      8  C7  UNK     1      39.771  -0.140   8.677  1.00  0.00     0.085 A 
ATOM      9  C8  UNK     1      40.956   1.963   7.261  1.00  0.00     0.075 A 
ATOM     10  C9  UNK     1      39.580   1.749   7.175  1.00  0.00     0.071 A 
ATOM     11  C10 UNK     1      38.988   0.700   7.882  1.00  0.00     0.074 A 
ENDROOT
BRANCH   5  12
ATOM     12  C4  UNK     1      45.320   0.938   8.858  1.00  0.00    -0.002 A 
ATOM     13  C12 UNK     1      45.816   1.754   7.839  1.00  0.00     0.017 A 
ATOM     14  C14 UNK     1      47.168   2.097   7.812  1.00  0.00     0.037 A 
ATOM     15  C15 UNK     1      48.028   1.625   8.804  1.00  0.00     0.065 A 
ATOM     16  C13 UNK     1      47.536   0.809   9.822  1.00  0.00     0.037 A 
ATOM     17  C11 UNK     1      46.184   0.466   9.850  1.00  0.00     0.017 A 
BRANCH  15  18
ATOM     18  O5  UNK     1      49.347   1.959   8.776  1.00  0.00    -0.361 OA
ATOM     19  H10 UNK     1      49.618   2.245   9.666  1.00  0.00     0.217 HD
ENDBRANCH  15  18
ENDBRANCH   5  12
BRANCH   8  20
ATOM     20  O2  UNK     1      39.145  -1.148   9.344  1.00  0.00    -0.360 OA
ATOM     21  H8  UNK     1      38.683  -0.804  10.124  1.00  0.00     0.217 HD
ENDBRANCH   8  20
BRANCH  10  22
ATOM     22  O4  UNK     1      38.812   2.564   6.400  1.00  0.00    -0.361 OA
ATOM     23  H9  UNK     1      38.863   3.471   6.750  1.00  0.00     0.217 HD
ENDBRANCH  10  22
TORSDOF 4
ENDMDL
MODEL 12
REMARK VINA RESULT:      -5.9     16.135     18.321
REMARK  4 active torsions:
REMARK  status: ('A' for Active; 'I' for Inactive)
REMARK    1  A    between atoms: O2_2  and  C7_12 
REMARK    2  A    between atoms: O4_4  and  C9_14 
REMARK    3  A    between atoms: O5_5  and  C15_20 
REMARK    4  A    between atoms: C3_8  and  C4_9 
ROOT
ATOM      1  O1  UNK     1      41.883  -0.431   8.426  1.00  0.00    -0.309 OA
ATOM      2  O3  UNK     1      39.176   2.312   7.105  1.00  0.00    -0.287 OA
ATOM      3  C1  UNK     1      39.578   0.123   7.900  1.00  0.00     0.081 A 
ATOM      4  C2  UNK     1      40.555  -0.765   8.343  1.00  0.00     0.095 A 
ATOM      5  C3  UNK     1      42.269   0.845   8.043  1.00  0.00     0.090 A 
ATOM      6  C5  UNK     1      39.981   1.481   7.501  1.00  0.00     0.190 A 
ATOM      7  C6  UNK     1      41.422   1.791   7.606  1.00  0.00     0.094 A 
ATOM      8  C7  UNK     1      38.240  -0.271   7.837  1.00  0.00     0.085 A 
ATOM      9  C8  UNK     1      40.199  -2.058   8.729  1.00  0.00     0.075 A 
ATOM     10  C9  UNK     1      38.864  -2.457   8.668  1.00  0.00     0.071 A 
ATOM     11  C10 UNK     1      37.886  -1.565   8.222  1.00  0.00     0.074 A 
ENDROOT
BRANCH   5  12
ATOM     12  C4  UNK     1      43.716   1.099   8.176  1.00  0.00    -0.002 A 
ATOM     13  C12 UNK     1      44.380   1.892   7.237  1.00  0.00     0.017 A 
ATOM     14  C14 UNK     1      45.748   2.131   7.364  1.00  0.00     0.037 A 
ATOM     15  C15 UNK     1      46.458   1.579   8.430  1.00  0.00     0.065 A 
ATOM     16  C13 UNK     1      45.799   0.787   9.369  1.00  0.00     0.037 A 
ATOM     17  C11 UNK     1      44.430   0.547   9.244  1.00  0.00     0.017 A 
BRANCH  15  18
ATOM     18  O5  UNK     1      47.792   1.813   8.552  1.00  0.00    -0.361 OA
ATOM     19  H10 UNK     1      48.273   1.207   7.962  1.00  0.00     0.217 HD
ENDBRANCH  15  18
ENDBRANCH   5  12
BRANCH   8  20
ATOM     20  O2  UNK     1      37.248   0.559   7.411  1.00  0.00    -0.360 OA
ATOM     21  H8  UNK     1      36.800   0.184   6.637  1.00  0.00     0.217 HD
ENDBRANCH   8  20
BRANCH  10  22
ATOM     22  O4  UNK     1      38.513  -3.717   9.044  1.00  0.00    -0.361 OA
ATOM     23  H9  UNK     1      37.717  -3.984   8.551  1.00  0.00     0.217 HD
ENDBRANCH  10  22
TORSDOF 4
ENDMDL
MODEL 13
REMARK VINA RESULT:      -5.9     16.409     18.635
REMARK  4 active torsions:
REMARK  status: ('A' for Active; 'I' for Inactive)
REMARK    1  A    between atoms: O2_2  and  C7_12 
REMARK    2  A    between atoms: O4_4  and  C9_14 
REMARK    3  A    between atoms: O5_5  and  C15_20 
REMARK    4  A    between atoms: C3_8  and  C4_9 
ROOT
ATOM      1  O1  UNK     1      43.621  -0.110   9.052  1.00  0.00    -0.309 OA
ATOM      2  O3  UNK     1      40.573   2.008   7.371  1.00  0.00    -0.287 OA
ATOM      3  C1  UNK     1      41.238   0.133   8.646  1.00  0.00     0.081 A 
ATOM      4  C2  UNK     1      42.326  -0.542   9.195  1.00  0.00     0.095 A 
ATOM      5  C3  UNK     1      43.854   1.046   8.321  1.00  0.00     0.090 A 
ATOM      6  C5  UNK     1      41.480   1.365   7.878  1.00  0.00     0.190 A 
ATOM      7  C6  UNK     1      42.890   1.787   7.751  1.00  0.00     0.094 A 
ATOM      8  C7  UNK     1      39.941  -0.353   8.824  1.00  0.00     0.085 A 
ATOM      9  C8  UNK     1      42.124  -1.711   9.929  1.00  0.00     0.075 A 
ATOM     10  C9  UNK     1      40.830  -2.201  10.110  1.00  0.00     0.071 A 
ATOM     11  C10 UNK     1      39.741  -1.524   9.558  1.00  0.00     0.074 A 
ENDROOT
BRANCH   5  12
ATOM     12  C4  UNK     1      45.278   1.423   8.235  1.00  0.00    -0.002 A 
ATOM     13  C12 UNK     1      46.188   0.951   9.184  1.00  0.00     0.017 A 
ATOM     14  C14 UNK     1      47.534   1.309   9.102  1.00  0.00     0.037 A 
ATOM     15  C15 UNK     1      47.974   2.140   8.071  1.00  0.00     0.065 A 
ATOM     16  C13 UNK     1      47.068   2.613   7.123  1.00  0.00     0.037 A 
ATOM     17  C11 UNK     1      45.722   2.256   7.204  1.00  0.00     0.017 A 
BRANCH  15  18
ATOM     18  O5  UNK     1      49.287   2.489   7.993  1.00  0.00    -0.361 OA
ATOM     19  H10 UNK     1      49.390   3.176   7.312  1.00  0.00     0.217 HD
ENDBRANCH  15  18
ENDBRANCH   5  12
BRANCH   8  20
ATOM     20  O2  UNK     1      38.845   0.270   8.308  1.00  0.00    -0.360 OA
ATOM     21  H8  UNK     1      38.227  -0.381   7.941  1.00  0.00     0.217 HD
ENDBRANCH   8  20
BRANCH  10  22
ATOM     22  O4  UNK     1      40.629  -3.342  10.825  1.00  0.00    -0.361 OA
ATOM     23  H9  UNK     1      39.765  -3.287  11.270  1.00  0.00     0.217 HD
ENDBRANCH  10  22
TORSDOF 4
ENDMDL
MODEL 14
REMARK VINA RESULT:      -5.9     22.483     26.357
REMARK  4 active torsions:
REMARK  status: ('A' for Active; 'I' for Inactive)
REMARK    1  A    between atoms: O2_2  and  C7_12 
REMARK    2  A    between atoms: O4_4  and  C9_14 
REMARK    3  A    between atoms: O5_5  and  C15_20 
REMARK    4  A    between atoms: C3_8  and  C4_9 
ROOT
ATOM      1  O1  UNK     1      38.823  -9.919   4.943  1.00  0.00    -0.309 OA
ATOM      2  O3  UNK     1      36.270 -10.704   1.866  1.00  0.00    -0.287 OA
ATOM      3  C1  UNK     1      37.281  -9.087   3.261  1.00  0.00     0.081 A 
ATOM      4  C2  UNK     1      38.167  -8.889   4.318  1.00  0.00     0.095 A 
ATOM      5  C3  UNK     1      38.584 -11.214   4.508  1.00  0.00     0.090 A 
ATOM      6  C5  UNK     1      37.033 -10.458   2.789  1.00  0.00     0.190 A 
ATOM      7  C6  UNK     1      37.760 -11.532   3.496  1.00  0.00     0.094 A 
ATOM      8  C7  UNK     1      36.642  -7.999   2.661  1.00  0.00     0.085 A 
ATOM      9  C8  UNK     1      38.421  -7.598   4.782  1.00  0.00     0.075 A 
ATOM     10  C9  UNK     1      37.786  -6.509   4.187  1.00  0.00     0.071 A 
ATOM     11  C10 UNK     1      36.897  -6.709   3.128  1.00  0.00     0.074 A 
ENDROOT
BRANCH   5  12
ATOM     12  C4  UNK     1      39.344 -12.244   5.244  1.00  0.00    -0.002 A 
ATOM     13  C12 UNK     1      39.581 -12.096   6.612  1.00  0.00     0.017 A 
ATOM     14  C14 UNK     1      40.300 -13.069   7.307  1.00  0.00     0.037 A 
ATOM     15  C15 UNK     1      40.783 -14.193   6.637  1.00  0.00     0.065 A 
ATOM     16  C13 UNK     1      40.549 -14.342   5.270  1.00  0.00     0.037 A 
ATOM     17  C11 UNK     1      39.830 -13.370   4.574  1.00  0.00     0.017 A 
BRANCH  15  18
ATOM     18  O5  UNK     1      41.485 -15.140   7.315  1.00  0.00    -0.361 OA
ATOM     19  H10 UNK     1      40.899 -15.896   7.496  1.00  0.00     0.217 HD
ENDBRANCH  15  18
ENDBRANCH   5  12
BRANCH   8  20
ATOM     20  O2  UNK     1      35.768  -8.140   1.626  1.00  0.00    -0.360 OA
ATOM     21  H8  UNK     1      36.127  -7.734   0.822  1.00  0.00     0.217 HD
ENDBRANCH   8  20
BRANCH  10  22
ATOM     22  O4  UNK     1      38.031  -5.248   4.638  1.00  0.00    -0.361 OA
ATOM     23  H9  UNK     1      38.895  -4.954   4.300  1.00  0.00     0.217 HD
ENDBRANCH  10  22
TORSDOF 4
ENDMDL
MODEL 15
REMARK VINA RESULT:      -5.8     15.796     16.744
REMARK  4 active torsions:
REMARK  status: ('A' for Active; 'I' for Inactive)
REMARK    1  A    between atoms: O2_2  and  C7_12 
REMARK    2  A    between atoms: O4_4  and  C9_14 
REMARK    3  A    between atoms: O5_5  and  C15_20 
REMARK    4  A    between atoms: C3_8  and  C4_9 
ROOT
ATOM      1  O1  UNK     1      43.598   1.846   7.472  1.00  0.00    -0.309 OA
ATOM      2  O3  UNK     1      44.052   4.817  10.223  1.00  0.00    -0.287 OA
ATOM      3  C1  UNK     1      45.051   3.449   8.576  1.00  0.00     0.081 A 
ATOM      4  C2  UNK     1      44.827   2.430   7.652  1.00  0.00     0.095 A 
ATOM      5  C3  UNK     1      42.537   2.286   8.250  1.00  0.00     0.090 A 
ATOM      6  C5  UNK     1      43.927   3.925   9.396  1.00  0.00     0.190 A 
ATOM      7  C6  UNK     1      42.626   3.263   9.166  1.00  0.00     0.094 A 
ATOM      8  C7  UNK     1      46.323   4.008   8.716  1.00  0.00     0.085 A 
ATOM      9  C8  UNK     1      45.876   1.962   6.861  1.00  0.00     0.075 A 
ATOM     10  C9  UNK     1      47.149   2.516   6.998  1.00  0.00     0.071 A 
ATOM     11  C10 UNK     1      47.372   3.537   7.924  1.00  0.00     0.074 A 
ENDROOT
BRANCH   5  12
ATOM     12  C4  UNK     1      41.263   1.595   7.970  1.00  0.00    -0.002 A 
ATOM     13  C12 UNK     1      40.216   2.278   7.347  1.00  0.00     0.017 A 
ATOM     14  C14 UNK     1      39.012   1.625   7.084  1.00  0.00     0.037 A 
ATOM     15  C15 UNK     1      38.850   0.287   7.444  1.00  0.00     0.065 A 
ATOM     16  C13 UNK     1      39.893  -0.397   8.068  1.00  0.00     0.037 A 
ATOM     17  C11 UNK     1      41.098   0.255   8.331  1.00  0.00     0.017 A 
BRANCH  15  18
ATOM     18  O5  UNK     1      37.675  -0.349   7.188  1.00  0.00    -0.361 OA
ATOM     19  H10 UNK     1      37.867  -1.237   6.841  1.00  0.00     0.217 HD
ENDBRANCH  15  18
ENDBRANCH   5  12
BRANCH   8  20
ATOM     20  O2  UNK     1      46.594   5.005   9.603  1.00  0.00    -0.360 OA
ATOM     21  H8  UNK     1      46.032   5.775   9.430  1.00  0.00     0.217 HD
ENDBRANCH   8  20
BRANCH  10  22
ATOM     22  O4  UNK     1      48.175   2.062   6.227  1.00  0.00    -0.361 OA
ATOM     23  H9  UNK     1      47.809   1.561   5.478  1.00  0.00     0.217 HD
ENDBRANCH  10  22
TORSDOF 4
ENDMDL
MODEL 16
REMARK VINA RESULT:      -5.7     22.168     23.174
REMARK  4 active torsions:
REMARK  status: ('A' for Active; 'I' for Inactive)
REMARK    1  A    between atoms: O2_2  and  C7_12 
REMARK    2  A    between atoms: O4_4  and  C9_14 
REMARK    3  A    between atoms: O5_5  and  C15_20 
REMARK    4  A    between atoms: C3_8  and  C4_9 
ROOT
ATOM      1  O1  UNK     1      56.020  -1.064   2.504  1.00  0.00    -0.309 OA
ATOM      2  O3  UNK     1      52.659  -2.256   0.532  1.00  0.00    -0.287 OA
ATOM      3  C1  UNK     1      54.911  -1.552   0.398  1.00  0.00     0.081 A 
ATOM      4  C2  UNK     1      56.025  -1.153   1.134  1.00  0.00     0.095 A 
ATOM      5  C3  UNK     1      54.851  -1.378   3.181  1.00  0.00     0.090 A 
ATOM      6  C5  UNK     1      53.672  -1.896   1.114  1.00  0.00     0.190 A 
ATOM      7  C6  UNK     1      53.717  -1.782   2.586  1.00  0.00     0.094 A 
ATOM      8  C7  UNK     1      54.974  -1.626  -0.995  1.00  0.00     0.085 A 
ATOM      9  C8  UNK     1      57.212  -0.824   0.480  1.00  0.00     0.075 A 
ATOM     10  C9  UNK     1      57.280  -0.895  -0.912  1.00  0.00     0.071 A 
ATOM     11  C10 UNK     1      56.162  -1.295  -1.648  1.00  0.00     0.074 A 
ENDROOT
BRANCH   5  12
ATOM     12  C4  UNK     1      54.958  -1.254   4.648  1.00  0.00    -0.002 A 
ATOM     13  C12 UNK     1      55.673  -0.197   5.214  1.00  0.00     0.017 A 
ATOM     14  C14 UNK     1      55.774  -0.081   6.600  1.00  0.00     0.037 A 
ATOM     15  C15 UNK     1      55.159  -1.022   7.426  1.00  0.00     0.065 A 
ATOM     16  C13 UNK     1      54.445  -2.080   6.865  1.00  0.00     0.037 A 
ATOM     17  C11 UNK     1      54.344  -2.197   5.478  1.00  0.00     0.017 A 
BRANCH  15  18
ATOM     18  O5  UNK     1      55.259  -0.909   8.778  1.00  0.00    -0.361 OA
ATOM     19  H10 UNK     1      54.633  -0.230   9.084  1.00  0.00     0.217 HD
ENDBRANCH  15  18
ENDBRANCH   5  12
BRANCH   8  20
ATOM     20  O2  UNK     1      53.914  -2.010  -1.759  1.00  0.00    -0.360 OA
ATOM     21  H8  UNK     1      54.050  -1.751  -2.684  1.00  0.00     0.217 HD
ENDBRANCH   8  20
BRANCH  10  22
ATOM     22  O4  UNK     1      58.437  -0.574  -1.554  1.00  0.00    -0.361 OA
ATOM     23  H9  UNK     1      58.342  -0.784  -2.499  1.00  0.00     0.217 HD
ENDBRANCH  10  22
TORSDOF 4
ENDMDL
MODEL 17
REMARK VINA RESULT:      -5.7     16.583     18.988
REMARK  4 active torsions:
REMARK  status: ('A' for Active; 'I' for Inactive)
REMARK    1  A    between atoms: O2_2  and  C7_12 
REMARK    2  A    between atoms: O4_4  and  C9_14 
REMARK    3  A    between atoms: O5_5  and  C15_20 
REMARK    4  A    between atoms: C3_8  and  C4_9 
ROOT
ATOM      1  O1  UNK     1      41.689   0.416   8.209  1.00  0.00    -0.309 OA
ATOM      2  O3  UNK     1      41.585  -2.681  10.855  1.00  0.00    -0.287 OA
ATOM      3  C1  UNK     1      40.394  -1.279   9.371  1.00  0.00     0.081 A 
ATOM      4  C2  UNK     1      40.500  -0.216   8.478  1.00  0.00     0.095 A 
ATOM      5  C3  UNK     1      42.831  -0.021   8.863  1.00  0.00     0.090 A 
ATOM      6  C5  UNK     1      41.605  -1.752  10.060  1.00  0.00     0.190 A 
ATOM      7  C6  UNK     1      42.858  -1.038   9.739  1.00  0.00     0.094 A 
ATOM      8  C7  UNK     1      39.158  -1.885   9.606  1.00  0.00     0.085 A 
ATOM      9  C8  UNK     1      39.368   0.250   7.810  1.00  0.00     0.075 A 
ATOM     10  C9  UNK     1      38.130  -0.351   8.040  1.00  0.00     0.071 A 
ATOM     11  C10 UNK     1      38.025  -1.417   8.937  1.00  0.00     0.074 A 
ENDROOT
BRANCH   5  12
ATOM     12  C4  UNK     1      44.052   0.723   8.497  1.00  0.00    -0.002 A 
ATOM     13  C12 UNK     1      45.181   0.666   9.317  1.00  0.00     0.017 A 
ATOM     14  C14 UNK     1      46.335   1.369   8.971  1.00  0.00     0.037 A 
ATOM     15  C15 UNK     1      46.364   2.132   7.803  1.00  0.00     0.065 A 
ATOM     16  C13 UNK     1      45.238   2.191   6.982  1.00  0.00     0.037 A 
ATOM     17  C11 UNK     1      44.084   1.488   7.327  1.00  0.00     0.017 A 
BRANCH  15  18
ATOM     18  O5  UNK     1      47.489   2.818   7.466  1.00  0.00    -0.361 OA
ATOM     19  H10 UNK     1      47.980   2.309   6.797  1.00  0.00     0.217 HD
ENDBRANCH  15  18
ENDBRANCH   5  12
BRANCH   8  20
ATOM     20  O2  UNK     1      39.002  -2.927  10.469  1.00  0.00    -0.360 OA
ATOM     21  H8  UNK     1      39.483  -2.759  11.293  1.00  0.00     0.217 HD
ENDBRANCH   8  20
BRANCH  10  22
ATOM     22  O4  UNK     1      37.022   0.101   7.390  1.00  0.00    -0.361 OA
ATOM     23  H9  UNK     1      36.768   0.963   7.762  1.00  0.00     0.217 HD
ENDBRANCH  10  22
TORSDOF 4
ENDMDL
MODEL 18
REMARK VINA RESULT:      -5.6     15.057     18.141
REMARK  4 active torsions:
REMARK  status: ('A' for Active; 'I' for Inactive)
REMARK    1  A    between atoms: O2_2  and  C7_12 
REMARK    2  A    between atoms: O4_4  and  C9_14 
REMARK    3  A    between atoms: O5_5  and  C15_20 
REMARK    4  A    between atoms: C3_8  and  C4_9 
ROOT
ATOM      1  O1  UNK     1      42.175   1.125   9.485  1.00  0.00    -0.309 OA
ATOM      2  O3  UNK     1      39.037   1.025   6.888  1.00  0.00    -0.287 OA
ATOM      3  C1  UNK     1      40.453  -0.166   8.358  1.00  0.00     0.081 A 
ATOM      4  C2  UNK     1      41.531  -0.061   9.235  1.00  0.00     0.095 A 
ATOM      5  C3  UNK     1      41.737   2.265   8.829  1.00  0.00     0.090 A 
ATOM      6  C5  UNK     1      39.979   1.044   7.668  1.00  0.00     0.190 A 
ATOM      7  C6  UNK     1      40.707   2.294   7.969  1.00  0.00     0.094 A 
ATOM      8  C7  UNK     1      39.835  -1.399   8.143  1.00  0.00     0.085 A 
ATOM      9  C8  UNK     1      41.999  -1.192   9.904  1.00  0.00     0.075 A 
ATOM     10  C9  UNK     1      41.385  -2.427   9.692  1.00  0.00     0.071 A 
ATOM     11  C10 UNK     1      40.305  -2.530   8.812  1.00  0.00     0.074 A 
ENDROOT
BRANCH   5  12
ATOM     12  C4  UNK     1      42.495   3.484   9.175  1.00  0.00    -0.002 A 
ATOM     13  C12 UNK     1      43.824   3.623   8.769  1.00  0.00     0.017 A 
ATOM     14  C14 UNK     1      44.540   4.775   9.097  1.00  0.00     0.037 A 
ATOM     15  C15 UNK     1      43.929   5.791   9.832  1.00  0.00     0.065 A 
ATOM     16  C13 UNK     1      42.602   5.655  10.240  1.00  0.00     0.037 A 
ATOM     17  C11 UNK     1      41.886   4.503   9.912  1.00  0.00     0.017 A 
BRANCH  15  18
ATOM     18  O5  UNK     1      44.628   6.913  10.152  1.00  0.00    -0.361 OA
ATOM     19  H10 UNK     1      45.383   6.998   9.544  1.00  0.00     0.217 HD
ENDBRANCH  15  18
ENDBRANCH   5  12
BRANCH   8  20
ATOM     20  O2  UNK     1      38.779  -1.554   7.297  1.00  0.00    -0.360 OA
ATOM     21  H8  UNK     1      39.057  -1.420   6.378  1.00  0.00     0.217 HD
ENDBRANCH   8  20
BRANCH  10  22
ATOM     22  O4  UNK     1      41.839  -3.533  10.343  1.00  0.00    -0.361 OA
ATOM     23  H9  UNK     1      41.743  -4.305   9.758  1.00  0.00     0.217 HD
ENDBRANCH  10  22
TORSDOF 4
ENDMDL
