MODEL 1
REMARK VINA RESULT:      -7.9      0.000      0.000
REMARK  4 active torsions:
REMARK  status: ('A' for Active; 'I' for Inactive)
REMARK    1  A    between atoms: O2_2  and  C7_12 
REMARK    2  A    between atoms: O4_4  and  C9_14 
REMARK    3  A    between atoms: O5_5  and  C15_20 
REMARK    4  A    between atoms: C3_8  and  C4_9 
ROOT
ATOM      1  O1  UNK     1      39.741  15.492  -0.046  1.00  0.00    -0.309 OA
ATOM      2  O3  UNK     1      41.195  16.436  -3.733  1.00  0.00    -0.287 OA
ATOM      3  C1  UNK     1      40.021  17.141  -1.807  1.00  0.00     0.081 A 
ATOM      4  C2  UNK     1      39.552  16.752  -0.555  1.00  0.00     0.095 A 
ATOM      5  C3  UNK     1      40.422  14.564  -0.819  1.00  0.00     0.090 A 
ATOM      6  C5  UNK     1      40.753  16.162  -2.626  1.00  0.00     0.190 A 
ATOM      7  C6  UNK     1      40.929  14.820  -2.036  1.00  0.00     0.094 A 
ATOM      8  C7  UNK     1      39.800  18.439  -2.274  1.00  0.00     0.085 A 
ATOM      9  C8  UNK     1      38.856  17.661   0.243  1.00  0.00     0.075 A 
ATOM     10  C9  UNK     1      38.632  18.959  -0.219  1.00  0.00     0.071 A 
ATOM     11  C10 UNK     1      39.103  19.347  -1.475  1.00  0.00     0.074 A 
ENDROOT
BRANCH   5  12
ATOM     12  C4  UNK     1      40.575  13.244  -0.176  1.00  0.00    -0.002 A 
ATOM     13  C12 UNK     1      40.251  13.079   1.173  1.00  0.00     0.017 A 
ATOM     14  C14 UNK     1      40.395  11.832   1.780  1.00  0.00     0.037 A 
ATOM     15  C15 UNK     1      40.864  10.745   1.041  1.00  0.00     0.065 A 
ATOM     16  C13 UNK     1      41.190  10.907  -0.305  1.00  0.00     0.037 A 
ATOM     17  C11 UNK     1      41.045  12.154  -0.914  1.00  0.00     0.017 A 
BRANCH  15  18
ATOM     18  O5  UNK     1      41.006   9.529   1.635  1.00  0.00    -0.361 OA
ATOM     19  H10 UNK     1      40.818   9.619   2.585  1.00  0.00     0.217 HD
ENDBRANCH  15  18
ENDBRANCH   5  12
BRANCH   8  20
ATOM     20  O2  UNK     1      40.239  18.867  -3.490  1.00  0.00    -0.360 OA
ATOM     21  H8  UNK     1      40.346  19.831  -3.491  1.00  0.00     0.217 HD
ENDBRANCH   8  20
BRANCH  10  22
ATOM     22  O4  UNK     1      37.954  19.849   0.557  1.00  0.00    -0.361 OA
ATOM     23  H9  UNK     1      37.452  20.451  -0.019  1.00  0.00     0.217 HD
ENDBRANCH  10  22
TORSDOF 4
ENDMDL
MODEL 2
REMARK VINA RESULT:      -7.9      0.021      1.081
REMARK  4 active torsions:
REMARK  status: ('A' for Active; 'I' for Inactive)
REMARK    1  A    between atoms: O2_2  and  C7_12 
REMARK    2  A    between atoms: O4_4  and  C9_14 
REMARK    3  A    between atoms: O5_5  and  C15_20 
REMARK    4  A    between atoms: C3_8  and  C4_9 
ROOT
ATOM      1  O1  UNK     1      39.744  15.497  -0.066  1.00  0.00    -0.309 OA
ATOM      2  O3  UNK     1      41.214  16.441  -3.746  1.00  0.00    -0.287 OA
ATOM      3  C1  UNK     1      40.032  17.146  -1.826  1.00  0.00     0.081 A 
ATOM      4  C2  UNK     1      39.557  16.758  -0.575  1.00  0.00     0.095 A 
ATOM      5  C3  UNK     1      40.429  14.569  -0.835  1.00  0.00     0.090 A 
ATOM      6  C5  UNK     1      40.768  16.167  -2.642  1.00  0.00     0.190 A 
ATOM      7  C6  UNK     1      40.940  14.824  -2.050  1.00  0.00     0.094 A 
ATOM      8  C7  UNK     1      39.813  18.443  -2.294  1.00  0.00     0.085 A 
ATOM      9  C8  UNK     1      38.858  17.667   0.218  1.00  0.00     0.075 A 
ATOM     10  C9  UNK     1      38.636  18.964  -0.244  1.00  0.00     0.071 A 
ATOM     11  C10 UNK     1      39.112  19.352  -1.499  1.00  0.00     0.074 A 
ENDROOT
BRANCH   5  12
ATOM     12  C4  UNK     1      40.578  13.249  -0.191  1.00  0.00    -0.002 A 
ATOM     13  C12 UNK     1      41.051  12.159  -0.924  1.00  0.00     0.017 A 
ATOM     14  C14 UNK     1      41.191  10.912  -0.315  1.00  0.00     0.037 A 
ATOM     15  C15 UNK     1      40.858  10.751   1.030  1.00  0.00     0.065 A 
ATOM     16  C13 UNK     1      40.384  11.838   1.765  1.00  0.00     0.037 A 
ATOM     17  C11 UNK     1      40.245  13.085   1.157  1.00  0.00     0.017 A 
BRANCH  15  18
ATOM     18  O5  UNK     1      40.994   9.535   1.624  1.00  0.00    -0.361 OA
ATOM     19  H10 UNK     1      40.138   9.073   1.595  1.00  0.00     0.217 HD
ENDBRANCH  15  18
ENDBRANCH   5  12
BRANCH   8  20
ATOM     20  O2  UNK     1      40.257  18.872  -3.508  1.00  0.00    -0.360 OA
ATOM     21  H8  UNK     1      39.520  19.215  -4.037  1.00  0.00     0.217 HD
ENDBRANCH   8  20
BRANCH  10  22
ATOM     22  O4  UNK     1      37.954  19.855   0.528  1.00  0.00    -0.361 OA
ATOM     23  H9  UNK     1      38.541  20.174   1.235  1.00  0.00     0.217 HD
ENDBRANCH  10  22
TORSDOF 4
ENDMDL
MODEL 3
REMARK VINA RESULT:      -7.6      2.398      7.133
REMARK  4 active torsions:
REMARK  status: ('A' for Active; 'I' for Inactive)
REMARK    1  A    between atoms: O2_2  and  C7_12 
REMARK    2  A    between atoms: O4_4  and  C9_14 
REMARK    3  A    between atoms: O5_5  and  C15_20 
REMARK    4  A    between atoms: C3_8  and  C4_9 
ROOT
ATOM      1  O1  UNK     1      40.332  17.004  -1.099  1.00  0.00    -0.309 OA
ATOM      2  O3  UNK     1      36.859  14.917  -0.672  1.00  0.00    -0.287 OA
ATOM      3  C1  UNK     1      39.178  14.867  -1.124  1.00  0.00     0.081 A 
ATOM      4  C2  UNK     1      40.329  15.641  -1.254  1.00  0.00     0.095 A 
ATOM      5  C3  UNK     1      39.134  17.638  -0.807  1.00  0.00     0.090 A 
ATOM      6  C5  UNK     1      37.907  15.534  -0.804  1.00  0.00     0.190 A 
ATOM      7  C6  UNK     1      37.962  17.003  -0.649  1.00  0.00     0.094 A 
ATOM      8  C7  UNK     1      39.234  13.482  -1.292  1.00  0.00     0.085 A 
ATOM      9  C8  UNK     1      41.548  15.032  -1.555  1.00  0.00     0.075 A 
ATOM     10  C9  UNK     1      41.610  13.649  -1.725  1.00  0.00     0.071 A 
ATOM     11  C10 UNK     1      40.455  12.875  -1.594  1.00  0.00     0.074 A 
ENDROOT
BRANCH   5  12
ATOM     12  C4  UNK     1      39.251  19.101  -0.655  1.00  0.00    -0.002 A 
ATOM     13  C12 UNK     1      39.978  19.848  -1.585  1.00  0.00     0.017 A 
ATOM     14  C14 UNK     1      40.089  21.231  -1.441  1.00  0.00     0.037 A 
ATOM     15  C15 UNK     1      39.474  21.872  -0.366  1.00  0.00     0.065 A 
ATOM     16  C13 UNK     1      38.749  21.130   0.566  1.00  0.00     0.037 A 
ATOM     17  C11 UNK     1      38.637  19.747   0.422  1.00  0.00     0.017 A 
BRANCH  15  18
ATOM     18  O5  UNK     1      39.584  23.221  -0.225  1.00  0.00    -0.361 OA
ATOM     19  H10 UNK     1      40.167  23.564  -0.924  1.00  0.00     0.217 HD
ENDBRANCH  15  18
ENDBRANCH   5  12
BRANCH   8  20
ATOM     20  O2  UNK     1      38.139  12.682  -1.174  1.00  0.00    -0.360 OA
ATOM     21  H8  UNK     1      37.422  13.153  -0.721  1.00  0.00     0.217 HD
ENDBRANCH   8  20
BRANCH  10  22
ATOM     22  O4  UNK     1      42.798  13.052  -2.018  1.00  0.00    -0.361 OA
ATOM     23  H9  UNK     1      43.100  13.361  -2.890  1.00  0.00     0.217 HD
ENDBRANCH  10  22
TORSDOF 4
ENDMDL
MODEL 4
REMARK VINA RESULT:      -7.1      1.575      6.744
REMARK  4 active torsions:
REMARK  status: ('A' for Active; 'I' for Inactive)
REMARK    1  A    between atoms: O2_2  and  C7_12 
REMARK    2  A    between atoms: O4_4  and  C9_14 
REMARK    3  A    between atoms: O5_5  and  C15_20 
REMARK    4  A    between atoms: C3_8  and  C4_9 
ROOT
ATOM      1  O1  UNK     1      40.092  14.336   0.412  1.00  0.00    -0.309 OA
ATOM      2  O3  UNK     1      41.817  11.865  -2.330  1.00  0.00    -0.287 OA
ATOM      3  C1  UNK     1      40.950  12.134  -0.148  1.00  0.00     0.081 A 
ATOM      4  C2  UNK     1      40.361  13.031   0.741  1.00  0.00     0.095 A 
ATOM      5  C3  UNK     1      40.429  14.781  -0.857  1.00  0.00     0.090 A 
ATOM      6  C5  UNK     1      41.300  12.599  -1.499  1.00  0.00     0.190 A 
ATOM      7  C6  UNK     1      40.993  14.012  -1.802  1.00  0.00     0.094 A 
ATOM      8  C7  UNK     1      41.201  10.816   0.240  1.00  0.00     0.085 A 
ATOM      9  C8  UNK     1      40.018  12.615   2.027  1.00  0.00     0.075 A 
ATOM     10  C9  UNK     1      40.266  11.300   2.420  1.00  0.00     0.071 A 
ATOM     11  C10 UNK     1      40.857  10.402   1.529  1.00  0.00     0.074 A 
ENDROOT
BRANCH   5  12
ATOM     12  C4  UNK     1      40.091  16.196  -1.106  1.00  0.00    -0.002 A 
ATOM     13  C12 UNK     1      40.363  16.775  -2.348  1.00  0.00     0.017 A 
ATOM     14  C14 UNK     1      40.044  18.112  -2.582  1.00  0.00     0.037 A 
ATOM     15  C15 UNK     1      39.452  18.875  -1.576  1.00  0.00     0.065 A 
ATOM     16  C13 UNK     1      39.179  18.301  -0.334  1.00  0.00     0.037 A 
ATOM     17  C11 UNK     1      39.498  16.963  -0.099  1.00  0.00     0.017 A 
BRANCH  15  18
ATOM     18  O5  UNK     1      39.141  20.180  -1.805  1.00  0.00    -0.361 OA
ATOM     19  H10 UNK     1      39.926  20.726  -1.625  1.00  0.00     0.217 HD
ENDBRANCH  15  18
ENDBRANCH   5  12
BRANCH   8  20
ATOM     20  O2  UNK     1      41.773   9.901  -0.590  1.00  0.00    -0.360 OA
ATOM     21  H8  UNK     1      41.254   9.811  -1.404  1.00  0.00     0.217 HD
ENDBRANCH   8  20
BRANCH  10  22
ATOM     22  O4  UNK     1      39.932  10.890   3.675  1.00  0.00    -0.361 OA
ATOM     23  H9  UNK     1      40.202  11.574   4.312  1.00  0.00     0.217 HD
ENDBRANCH  10  22
TORSDOF 4
ENDMDL
MODEL 5
REMARK VINA RESULT:      -7.1      1.574      6.656
REMARK  4 active torsions:
REMARK  status: ('A' for Active; 'I' for Inactive)
REMARK    1  A    between atoms: O2_2  and  C7_12 
REMARK    2  A    between atoms: O4_4  and  C9_14 
REMARK    3  A    between atoms: O5_5  and  C15_20 
REMARK    4  A    between atoms: C3_8  and  C4_9 
ROOT
ATOM      1  O1  UNK     1      40.146  14.361   0.331  1.00  0.00    -0.309 OA
ATOM      2  O3  UNK     1      41.886  11.843  -2.358  1.00  0.00    -0.287 OA
ATOM      3  C1  UNK     1      40.995  12.146  -0.190  1.00  0.00     0.081 A 
ATOM      4  C2  UNK     1      40.402  13.059   0.679  1.00  0.00     0.095 A 
ATOM      5  C3  UNK     1      40.501  14.787  -0.940  1.00  0.00     0.090 A 
ATOM      6  C5  UNK     1      41.365  12.591  -1.543  1.00  0.00     0.190 A 
ATOM      7  C6  UNK     1      41.071  14.002  -1.868  1.00  0.00     0.094 A 
ATOM      8  C7  UNK     1      41.232  10.832   0.218  1.00  0.00     0.085 A 
ATOM      9  C8  UNK     1      40.040  12.662   1.967  1.00  0.00     0.075 A 
ATOM     10  C9  UNK     1      40.275  11.350   2.380  1.00  0.00     0.071 A 
ATOM     11  C10 UNK     1      40.870  10.436   1.507  1.00  0.00     0.074 A 
ENDROOT
BRANCH   5  12
ATOM     12  C4  UNK     1      40.176  16.201  -1.211  1.00  0.00    -0.002 A 
ATOM     13  C12 UNK     1      39.610  16.996  -0.211  1.00  0.00     0.017 A 
ATOM     14  C14 UNK     1      39.302  18.331  -0.468  1.00  0.00     0.037 A 
ATOM     15  C15 UNK     1      39.559  18.878  -1.726  1.00  0.00     0.065 A 
ATOM     16  C13 UNK     1      40.124  18.087  -2.726  1.00  0.00     0.037 A 
ATOM     17  C11 UNK     1      40.432  16.751  -2.470  1.00  0.00     0.017 A 
BRANCH  15  18
ATOM     18  O5  UNK     1      39.258  20.181  -1.976  1.00  0.00    -0.361 OA
ATOM     19  H10 UNK     1      38.450  20.416  -1.487  1.00  0.00     0.217 HD
ENDBRANCH  15  18
ENDBRANCH   5  12
BRANCH   8  20
ATOM     20  O2  UNK     1      41.808   9.903  -0.594  1.00  0.00    -0.360 OA
ATOM     21  H8  UNK     1      41.177   9.600  -1.265  1.00  0.00     0.217 HD
ENDBRANCH   8  20
BRANCH  10  22
ATOM     22  O4  UNK     1      39.923  10.959   3.635  1.00  0.00    -0.361 OA
ATOM     23  H9  UNK     1      39.808  11.749   4.192  1.00  0.00     0.217 HD
ENDBRANCH  10  22
TORSDOF 4
ENDMDL
MODEL 6
REMARK VINA RESULT:      -6.9      1.279      2.804
REMARK  4 active torsions:
REMARK  status: ('A' for Active; 'I' for Inactive)
REMARK    1  A    between atoms: O2_2  and  C7_12 
REMARK    2  A    between atoms: O4_4  and  C9_14 
REMARK    3  A    between atoms: O5_5  and  C15_20 
REMARK    4  A    between atoms: C3_8  and  C4_9 
ROOT
ATOM      1  O1  UNK     1      40.608  15.201  -1.951  1.00  0.00    -0.309 OA
ATOM      2  O3  UNK     1      38.919  18.109   0.350  1.00  0.00    -0.287 OA
ATOM      3  C1  UNK     1      39.884  17.508  -1.722  1.00  0.00     0.081 A 
ATOM      4  C2  UNK     1      40.452  16.468  -2.454  1.00  0.00     0.095 A 
ATOM      5  C3  UNK     1      40.189  14.950  -0.653  1.00  0.00     0.090 A 
ATOM      6  C5  UNK     1      39.429  17.244  -0.348  1.00  0.00     0.190 A 
ATOM      7  C6  UNK     1      39.621  15.866   0.148  1.00  0.00     0.094 A 
ATOM      8  C7  UNK     1      39.749  18.779  -2.286  1.00  0.00     0.085 A 
ATOM      9  C8  UNK     1      40.890  16.692  -3.760  1.00  0.00     0.075 A 
ATOM     10  C9  UNK     1      40.757  17.959  -4.328  1.00  0.00     0.071 A 
ATOM     11  C10 UNK     1      40.188  19.001  -3.592  1.00  0.00     0.074 A 
ENDROOT
BRANCH   5  12
ATOM     12  C4  UNK     1      40.398  13.557  -0.214  1.00  0.00    -0.002 A 
ATOM     13  C12 UNK     1      40.053  13.169   1.082  1.00  0.00     0.017 A 
ATOM     14  C14 UNK     1      40.252  11.852   1.496  1.00  0.00     0.037 A 
ATOM     15  C15 UNK     1      40.796  10.918   0.615  1.00  0.00     0.065 A 
ATOM     16  C13 UNK     1      41.142  11.301  -0.681  1.00  0.00     0.037 A 
ATOM     17  C11 UNK     1      40.944  12.618  -1.095  1.00  0.00     0.017 A 
BRANCH  15  18
ATOM     18  O5  UNK     1      40.990   9.633   1.020  1.00  0.00    -0.361 OA
ATOM     19  H10 UNK     1      40.172   9.306   1.432  1.00  0.00     0.217 HD
ENDBRANCH  15  18
ENDBRANCH   5  12
BRANCH   8  20
ATOM     20  O2  UNK     1      39.200  19.828  -1.612  1.00  0.00    -0.360 OA
ATOM     21  H8  UNK     1      39.329  19.722  -0.657  1.00  0.00     0.217 HD
ENDBRANCH   8  20
BRANCH  10  22
ATOM     22  O4  UNK     1      41.184  18.181  -5.602  1.00  0.00    -0.361 OA
ATOM     23  H9  UNK     1      41.631  17.382  -5.929  1.00  0.00     0.217 HD
ENDBRANCH  10  22
TORSDOF 4
ENDMDL
MODEL 7
REMARK VINA RESULT:      -6.7      1.542      6.791
REMARK  4 active torsions:
REMARK  status: ('A' for Active; 'I' for Inactive)
REMARK    1  A    between atoms: O2_2  and  C7_12 
REMARK    2  A    between atoms: O4_4  and  C9_14 
REMARK    3  A    between atoms: O5_5  and  C15_20 
REMARK    4  A    between atoms: C3_8  and  C4_9 
ROOT
ATOM      1  O1  UNK     1      40.282  14.118   0.661  1.00  0.00    -0.309 OA
ATOM      2  O3  UNK     1      41.576  10.738  -1.211  1.00  0.00    -0.287 OA
ATOM      3  C1  UNK     1      40.855  11.762   0.793  1.00  0.00     0.081 A 
ATOM      4  C2  UNK     1      40.417  12.952   1.371  1.00  0.00     0.095 A 
ATOM      5  C3  UNK     1      40.605  14.112  -0.688  1.00  0.00     0.090 A 
ATOM      6  C5  UNK     1      41.188  11.748  -0.640  1.00  0.00     0.190 A 
ATOM      7  C6  UNK     1      41.029  13.029  -1.358  1.00  0.00     0.094 A 
ATOM      8  C7  UNK     1      40.973  10.603   1.564  1.00  0.00     0.085 A 
ATOM      9  C8  UNK     1      40.093  12.991   2.727  1.00  0.00     0.075 A 
ATOM     10  C9  UNK     1      40.209  11.837   3.502  1.00  0.00     0.071 A 
ATOM     11  C10 UNK     1      40.649  10.645   2.921  1.00  0.00     0.074 A 
ENDROOT
BRANCH   5  12
ATOM     12  C4  UNK     1      40.418  15.415  -1.355  1.00  0.00    -0.002 A 
ATOM     13  C12 UNK     1      40.825  15.591  -2.679  1.00  0.00     0.017 A 
ATOM     14  C14 UNK     1      40.650  16.823  -3.309  1.00  0.00     0.037 A 
ATOM     15  C15 UNK     1      40.066  17.884  -2.616  1.00  0.00     0.065 A 
ATOM     16  C13 UNK     1      39.659  17.712  -1.293  1.00  0.00     0.037 A 
ATOM     17  C11 UNK     1      39.834  16.480  -0.663  1.00  0.00     0.017 A 
BRANCH  15  18
ATOM     18  O5  UNK     1      39.896  19.086  -3.231  1.00  0.00    -0.361 OA
ATOM     19  H10 UNK     1      40.762  19.411  -3.532  1.00  0.00     0.217 HD
ENDBRANCH  15  18
ENDBRANCH   5  12
BRANCH   8  20
ATOM     20  O2  UNK     1      41.395   9.416   1.048  1.00  0.00    -0.360 OA
ATOM     21  H8  UNK     1      41.268   8.701   1.691  1.00  0.00     0.217 HD
ENDBRANCH   8  20
BRANCH  10  22
ATOM     22  O4  UNK     1      39.893  11.872   4.826  1.00  0.00    -0.361 OA
ATOM     23  H9  UNK     1      38.953  12.102   4.920  1.00  0.00     0.217 HD
ENDBRANCH  10  22
TORSDOF 4
ENDMDL
MODEL 8
REMARK VINA RESULT:      -5.6     10.275     12.170
REMARK  4 active torsions:
REMARK  status: ('A' for Active; 'I' for Inactive)
REMARK    1  A    between atoms: O2_2  and  C7_12 
REMARK    2  A    between atoms: O4_4  and  C9_14 
REMARK    3  A    between atoms: O5_5  and  C15_20 
REMARK    4  A    between atoms: C3_8  and  C4_9 
ROOT
ATOM      1  O1  UNK     1      46.157  11.251  -7.885  1.00  0.00    -0.309 OA
ATOM      2  O3  UNK     1      47.917   7.772  -9.067  1.00  0.00    -0.287 OA
ATOM      3  C1  UNK     1      45.967   9.105  -9.007  1.00  0.00     0.081 A 
ATOM      4  C2  UNK     1      45.428  10.315  -8.574  1.00  0.00     0.095 A 
ATOM      5  C3  UNK     1      47.486  10.974  -7.600  1.00  0.00     0.090 A 
ATOM      6  C5  UNK     1      47.379   8.812  -8.715  1.00  0.00     0.190 A 
ATOM      7  C6  UNK     1      48.120   9.850  -7.969  1.00  0.00     0.094 A 
ATOM      8  C7  UNK     1      45.178   8.189  -9.706  1.00  0.00     0.085 A 
ATOM      9  C8  UNK     1      44.093  10.618  -8.840  1.00  0.00     0.075 A 
ATOM     10  C9  UNK     1      43.300   9.706  -9.537  1.00  0.00     0.071 A 
ATOM     11  C10 UNK     1      43.841   8.494  -9.969  1.00  0.00     0.074 A 
ENDROOT
BRANCH   5  12
ATOM     12  C4  UNK     1      48.177  12.049  -6.861  1.00  0.00    -0.002 A 
ATOM     13  C12 UNK     1      49.161  12.814  -7.491  1.00  0.00     0.017 A 
ATOM     14  C14 UNK     1      49.814  13.829  -6.792  1.00  0.00     0.037 A 
ATOM     15  C15 UNK     1      49.485  14.083  -5.461  1.00  0.00     0.065 A 
ATOM     16  C13 UNK     1      48.503  13.321  -4.828  1.00  0.00     0.037 A 
ATOM     17  C11 UNK     1      47.849  12.306  -5.527  1.00  0.00     0.017 A 
BRANCH  15  18
ATOM     18  O5  UNK     1      50.123  15.073  -4.779  1.00  0.00    -0.361 OA
ATOM     19  H10 UNK     1      51.082  14.978  -4.911  1.00  0.00     0.217 HD
ENDBRANCH  15  18
ENDBRANCH   5  12
BRANCH   8  20
ATOM     20  O2  UNK     1      45.657   6.994 -10.150  1.00  0.00    -0.360 OA
ATOM     21  H8  UNK     1      46.487   7.121 -10.636  1.00  0.00     0.217 HD
ENDBRANCH   8  20
BRANCH  10  22
ATOM     22  O4  UNK     1      41.996   9.999  -9.798  1.00  0.00    -0.361 OA
ATOM     23  H9  UNK     1      41.429   9.445  -9.234  1.00  0.00     0.217 HD
ENDBRANCH  10  22
TORSDOF 4
ENDMDL
MODEL 9
REMARK VINA RESULT:      -5.6     10.280     12.133
REMARK  4 active torsions:
REMARK  status: ('A' for Active; 'I' for Inactive)
REMARK    1  A    between atoms: O2_2  and  C7_12 
REMARK    2  A    between atoms: O4_4  and  C9_14 
REMARK    3  A    between atoms: O5_5  and  C15_20 
REMARK    4  A    between atoms: C3_8  and  C4_9 
ROOT
ATOM      1  O1  UNK     1      46.160  11.251  -7.886  1.00  0.00    -0.309 OA
ATOM      2  O3  UNK     1      47.920   7.773  -9.071  1.00  0.00    -0.287 OA
ATOM      3  C1  UNK     1      45.970   9.106  -9.009  1.00  0.00     0.081 A 
ATOM      4  C2  UNK     1      45.431  10.316  -8.576  1.00  0.00     0.095 A 
ATOM      5  C3  UNK     1      47.489  10.975  -7.601  1.00  0.00     0.090 A 
ATOM      6  C5  UNK     1      47.382   8.813  -8.719  1.00  0.00     0.190 A 
ATOM      7  C6  UNK     1      48.123   9.850  -7.971  1.00  0.00     0.094 A 
ATOM      8  C7  UNK     1      45.181   8.191  -9.709  1.00  0.00     0.085 A 
ATOM      9  C8  UNK     1      44.095  10.619  -8.840  1.00  0.00     0.075 A 
ATOM     10  C9  UNK     1      43.302   9.708  -9.539  1.00  0.00     0.071 A 
ATOM     11  C10 UNK     1      43.844   8.496  -9.972  1.00  0.00     0.074 A 
ENDROOT
BRANCH   5  12
ATOM     12  C4  UNK     1      48.180  12.049  -6.862  1.00  0.00    -0.002 A 
ATOM     13  C12 UNK     1      47.856  12.303  -5.527  1.00  0.00     0.017 A 
ATOM     14  C14 UNK     1      48.508  13.319  -4.829  1.00  0.00     0.037 A 
ATOM     15  C15 UNK     1      49.488  14.084  -5.463  1.00  0.00     0.065 A 
ATOM     16  C13 UNK     1      49.813  13.833  -6.796  1.00  0.00     0.037 A 
ATOM     17  C11 UNK     1      49.161  12.818  -7.494  1.00  0.00     0.017 A 
BRANCH  15  18
ATOM     18  O5  UNK     1      50.123  15.075  -4.781  1.00  0.00    -0.361 OA
ATOM     19  H10 UNK     1      49.874  15.022  -3.842  1.00  0.00     0.217 HD
ENDBRANCH  15  18
ENDBRANCH   5  12
BRANCH   8  20
ATOM     20  O2  UNK     1      45.660   6.997 -10.154  1.00  0.00    -0.360 OA
ATOM     21  H8  UNK     1      45.971   7.075 -11.069  1.00  0.00     0.217 HD
ENDBRANCH   8  20
BRANCH  10  22
ATOM     22  O4  UNK     1      41.998  10.001  -9.799  1.00  0.00    -0.361 OA
ATOM     23  H9  UNK     1      41.884  10.967  -9.793  1.00  0.00     0.217 HD
ENDBRANCH  10  22
TORSDOF 4
ENDMDL
