REMARK  10 active torsions:
REMARK  status: ('A' for Active; 'I' for Inactive)
REMARK    1  A    between atoms: O2_2  and  C4_15 
REMARK    2  A    between atoms: O2_2  and  C7_18 
REMARK    3  A    between atoms: O3_3  and  C1_12 
REMARK    4  A    between atoms: O4_4  and  C2_13 
REMARK    5  A    between atoms: O5_5  and  C3_14 
REMARK    6  A    between atoms: O6_6  and  C6_17 
REMARK    7  A    between atoms: O9_9  and  C9_20 
REMARK    8  A    between atoms: O10_10  and  C12_23 
REMARK    9  A    between atoms: C5_16  and  C6_17 
REMARK   10  A    between atoms: C14_25  and  C16_27 
ROOT
ATOM      1  O8  UNK     1      -2.453   0.357   0.472  1.00  0.00    -0.309 OA
ATOM      2  O11 UNK     1      -3.218  -3.354  -1.026  1.00  0.00    -0.287 OA
ATOM      3  C7  UNK     1       0.797  -1.176   1.078  1.00  0.00     0.110 A 
ATOM      4  C8  UNK     1      -0.239  -0.243   1.033  1.00  0.00     0.078 A 
ATOM      5  C9  UNK     1       0.601  -2.465   0.580  1.00  0.00     0.134 A 
ATOM      6  C10 UNK     1      -1.473  -0.602   0.488  1.00  0.00     0.096 A 
ATOM      7  C11 UNK     1      -1.666  -1.890  -0.008  1.00  0.00     0.084 A 
ATOM      8  C12 UNK     1      -0.631  -2.827   0.035  1.00  0.00     0.118 A 
ATOM      9  C13 UNK     1      -2.977  -2.242  -0.575  1.00  0.00     0.190 A 
ATOM     10  C14 UNK     1      -3.687   0.031  -0.070  1.00  0.00     0.090 A 
ATOM     11  C15 UNK     1      -3.997  -1.174  -0.573  1.00  0.00     0.094 A 
ENDROOT
BRANCH   3  12
ATOM     12  O2  UNK     1       1.999  -0.815   1.612  1.00  0.00    -0.315 OA
BRANCH  12  13
ATOM     13  C4  UNK     1       2.678   0.272   0.982  1.00  0.00     0.299 C 
ATOM     14  O1  UNK     1       2.929  -0.045  -0.385  1.00  0.00    -0.340 OA
ATOM     15  C5  UNK     1       3.586   1.013  -1.074  1.00  0.00     0.253 C 
ATOM     16  C3  UNK     1       4.958   1.290  -0.471  1.00  0.00     0.189 C 
ATOM     17  C1  UNK     1       4.846   1.562   1.029  1.00  0.00     0.183 C 
ATOM     18  C2  UNK     1       3.994   0.501   1.726  1.00  0.00     0.205 C 
BRANCH  15  19
ATOM     19  C6  UNK     1       3.710   0.490  -2.468  1.00  0.00     0.172 C 
ATOM     20  O7  UNK     1       3.357  -0.621  -2.835  1.00  0.00    -0.648 OA
BRANCH  19  21
ATOM     21  O6  UNK     1       4.274   1.418  -3.279  1.00  0.00    -0.774 OA
ATOM     22  H10 UNK     1       4.366   1.093  -4.200  1.00  0.00     0.167 HD
ENDBRANCH  19  21
ENDBRANCH  15  19
BRANCH  16  23
ATOM     23  O5  UNK     1       5.516   2.436  -1.112  1.00  0.00    -0.390 OA
ATOM     24  H8  UNK     1       4.914   3.186  -0.967  1.00  0.00     0.210 HD
ENDBRANCH  16  23
BRANCH  17  25
ATOM     25  O3  UNK     1       6.164   1.552   1.580  1.00  0.00    -0.390 OA
ATOM     26  H6  UNK     1       6.096   1.810   2.514  1.00  0.00     0.210 HD
ENDBRANCH  17  25
BRANCH  18  27
ATOM     27  O4  UNK     1       3.689   0.934   3.052  1.00  0.00    -0.388 OA
ATOM     28  H7  UNK     1       4.525   0.987   3.544  1.00  0.00     0.210 HD
ENDBRANCH  18  27
ENDBRANCH  12  13
ENDBRANCH   3  12
BRANCH   5  29
ATOM     29  O9  UNK     1       1.620  -3.372   0.628  1.00  0.00    -0.356 OA
ATOM     30  H12 UNK     1       2.394  -2.944   1.034  1.00  0.00     0.218 HD
ENDBRANCH   5  29
BRANCH   8  31
ATOM     31  O10 UNK     1      -0.784  -4.095  -0.441  1.00  0.00    -0.357 OA
ATOM     32  H13 UNK     1      -1.677  -4.224  -0.795  1.00  0.00     0.217 HD
ENDBRANCH   8  31
BRANCH  10  33
ATOM     33  C16 UNK     1      -4.669   1.134  -0.033  1.00  0.00    -0.002 A 
ATOM     34  C17 UNK     1      -6.033   0.855   0.088  1.00  0.00     0.014 A 
ATOM     35  C19 UNK     1      -6.960   1.897   0.124  1.00  0.00     0.001 A 
ATOM     36  C21 UNK     1      -6.527   3.220   0.040  1.00  0.00     0.000 A 
ATOM     37  C20 UNK     1      -5.166   3.502  -0.081  1.00  0.00     0.001 A 
ATOM     38  C18 UNK     1      -4.239   2.460  -0.117  1.00  0.00     0.014 A 
ENDBRANCH  10  33
TORSDOF 10
