@<TRIPOS>MOLECULE
baicalin.pdb
50 53 1 0 0
SMALL
NO_CHARGES


@<TRIPOS>ATOM
      1 O1          2.9290   -0.0450   -0.3850 O.3       1 UNK    0.0000
      2 O2          1.9990   -0.8150    1.6120 O.3       1 UNK    0.0000
      3 O3          6.1640    1.5520    1.5800 O.3       1 UNK    0.0000
      4 O4          3.6890    0.9340    3.0520 O.3       1 UNK    0.0000
      5 O5          5.5160    2.4360   -1.1120 O.3       1 UNK    0.0000
      6 O6          4.2740    1.4180   -3.2790 O.3       1 UNK    0.0000
      7 O7          3.3570   -0.6210   -2.8350 O.2       1 UNK    0.0000
      8 O8         -2.4530    0.3570    0.4720 O.3       1 UNK    0.0000
      9 O9          1.6200   -3.3720    0.6280 O.3       1 UNK    0.0000
     10 O10        -0.7840   -4.0950   -0.4410 O.3       1 UNK    0.0000
     11 O11        -3.2180   -3.3540   -1.0260 O.2       1 UNK    0.0000
     12 C1          4.8460    1.5620    1.0290 C.3       1 UNK    0.0000
     13 C2          3.9940    0.5010    1.7260 C.3       1 UNK    0.0000
     14 C3          4.9580    1.2900   -0.4710 C.3       1 UNK    0.0000
     15 C4          2.6780    0.2720    0.9820 C.3       1 UNK    0.0000
     16 C5          3.5860    1.0130   -1.0740 C.3       1 UNK    0.0000
     17 C6          3.7100    0.4900   -2.4680 C.2       1 UNK    0.0000
     18 C7          0.7970   -1.1760    1.0780 C.ar      1 UNK    0.0000
     19 C8         -0.2390   -0.2430    1.0330 C.ar      1 UNK    0.0000
     20 C9          0.6010   -2.4650    0.5800 C.ar      1 UNK    0.0000
     21 C10        -1.4730   -0.6020    0.4880 C.ar      1 UNK    0.0000
     22 C11        -1.6660   -1.8900   -0.0080 C.ar      1 UNK    0.0000
     23 C12        -0.6310   -2.8270    0.0350 C.ar      1 UNK    0.0000
     24 C13        -2.9770   -2.2420   -0.5750 C.2       1 UNK    0.0000
     25 C14        -3.6870    0.0310   -0.0700 C.2       1 UNK    0.0000
     26 C15        -3.9970   -1.1740   -0.5730 C.2       1 UNK    0.0000
     27 C16        -4.6690    1.1340   -0.0330 C.ar      1 UNK    0.0000
     28 C17        -6.0330    0.8550    0.0880 C.ar      1 UNK    0.0000
     29 C18        -4.2390    2.4600   -0.1170 C.ar      1 UNK    0.0000
     30 C19        -6.9600    1.8970    0.1240 C.ar      1 UNK    0.0000
     31 C20        -5.1660    3.5020   -0.0810 C.ar      1 UNK    0.0000
     32 C21        -6.5270    3.2200    0.0400 C.ar      1 UNK    0.0000
     33 H1          4.4410    2.5650    1.2110 H         1 UNK    0.0000
     34 H2          4.5490   -0.4410    1.8130 H         1 UNK    0.0000
     35 H3          5.6450    0.4530   -0.6480 H         1 UNK    0.0000
     36 H4          2.0600    1.1770    1.0510 H         1 UNK    0.0000
     37 H5          2.9380    1.8970   -1.0970 H         1 UNK    0.0000
     38 H6          6.0960    1.8100    2.5140 H         1 UNK    0.0000
     39 H7          4.5250    0.9870    3.5440 H         1 UNK    0.0000
     40 H8          4.9140    3.1860   -0.9670 H         1 UNK    0.0000
     41 H9         -0.1060    0.7580    1.4340 H         1 UNK    0.0000
     42 H10         4.3660    1.0930   -4.2000 H         1 UNK    0.0000
     43 H11        -4.9580   -1.4230   -1.0070 H         1 UNK    0.0000
     44 H12         2.3940   -2.9440    1.0340 H         1 UNK    0.0000
     45 H13        -1.6770   -4.2240   -0.7950 H         1 UNK    0.0000
     46 H14        -6.4090   -0.1600    0.1790 H         1 UNK    0.0000
     47 H15        -3.1850    2.7090   -0.2200 H         1 UNK    0.0000
     48 H16        -8.0190    1.6780    0.2230 H         1 UNK    0.0000
     49 H17        -4.8290    4.5320   -0.1480 H         1 UNK    0.0000
     50 H18        -7.2490    4.0310    0.0690 H         1 UNK    0.0000
@<TRIPOS>BOND
     1    1   15 1
     2    1   16 1
     3    2   15 1
     4    2   18 1
     5    3   12 1
     6    3   38 1
     7    4   13 1
     8    4   39 1
     9    5   14 1
    10    5   40 1
    11    6   17 1
    12    6   42 1
    13    7   17 2
    14    8   21 1
    15    8   25 1
    16    9   20 1
    17    9   44 1
    18   10   23 1
    19   10   45 1
    20   11   24 2
    21   12   13 1
    22   12   14 1
    23   12   33 1
    24   13   15 1
    25   13   34 1
    26   14   16 1
    27   14   35 1
    28   15   36 1
    29   16   17 1
    30   16   37 1
    31   18   19 ar
    32   18   20 ar
    33   19   21 ar
    34   19   41 1
    35   20   23 ar
    36   21   22 ar
    37   22   23 ar
    38   22   24 1
    39   24   26 2
    40   25   26 2
    41   25   27 1
    42   26   43 1
    43   27   28 ar
    44   27   29 ar
    45   28   30 ar
    46   28   46 1
    47   29   31 ar
    48   29   47 1
    49   30   32 ar
    50   30   48 1
    51   31   32 ar
    52   31   49 1
    53   32   50 1
@<TRIPOS>SUBSTRUCTURE
     1 UNK     1 RESIDUE           4 A     UNK     0 ROOT
