REMARK  11 active torsions:
REMARK  status: ('A' for Active; 'I' for Inactive)
REMARK    1  A    between atoms: C3_3  and  C2_2 
REMARK    2  A    between atoms: C4_4  and  C3_3 
REMARK    3  A    between atoms: C5_5  and  C4_4 
REMARK    4  A    between atoms: C6_6  and  C5_5 
REMARK    5  A    between atoms: C7_7  and  C6_6 
REMARK    6  A    between atoms: C8_8  and  C7_7 
REMARK    7  A    between atoms: C9_9  and  C8_8 
REMARK    8  A    between atoms: C10_10  and  C9_9 
REMARK    9  A    between atoms: C11_12  and  C10_10 
REMARK   10  A    between atoms: C11_12  and  C12_13 
REMARK       I    between atoms: C12_13  and  N1_15 
REMARK   11  A    between atoms: C13_16  and  N1_15 
ROOT
ATOM      1  C10 OHN d          39.878  17.267  -1.536  0.00  0.00     0.135 C 
ATOM      2  O1  OHN d          39.881  17.847  -2.608  0.00  0.00    -0.297 OA
ENDROOT
BRANCH   1   3
ATOM      3  C11 OHN d          39.104  17.784  -0.369  0.00  0.00     0.181 C 
BRANCH   3   4
ATOM      4  C12 OHN d          38.763  19.238  -0.567  0.00  0.00     0.225 C 
ATOM      5  N1  OHN d          39.541  20.166  -0.025  0.00  0.00    -0.347 N 
ATOM      6  H19 OHN d          40.344  19.926   0.538  0.00  0.00     0.163 HD
ATOM      7  O2  OHN d          37.779  19.503  -1.216  0.00  0.00    -0.273 OA
BRANCH   5   8
ATOM      8  C13 OHN d          39.177  21.529  -0.284  0.00  0.00     0.186 C 
ATOM      9  C14 OHN d          39.204  22.444   0.938  0.00  0.00     0.062 C 
ATOM     10  C15 OHN d          39.788  23.795   0.491  0.00  0.00     0.181 C 
ATOM     11  O4  OHN d          40.486  23.520  -0.710  0.00  0.00    -0.320 OA
ATOM     12  C16 OHN d          40.141  22.217  -1.172  0.00  0.00     0.281 C 
ATOM     13  O3  OHN d          40.582  21.747  -2.186  0.00  0.00    -0.263 OA
ENDBRANCH   5   8
ENDBRANCH   3   4
ENDBRANCH   1   3
BRANCH   1  14
ATOM     14  C9  OHN d          40.707  16.039  -1.338  0.00  0.00     0.079 C 
BRANCH  14  15
ATOM     15  C8  OHN d          40.271  14.905  -2.234  0.00  0.00     0.007 C 
BRANCH  15  16
ATOM     16  C7  OHN d          41.021  13.690  -1.711  0.00  0.00     0.000 C 
BRANCH  16  17
ATOM     17  C6  OHN d          40.059  12.756  -0.969  0.00  0.00     0.000 C 
BRANCH  17  18
ATOM     18  C5  OHN d          40.872  11.661  -0.296  0.00  0.00     0.000 C 
BRANCH  18  19
ATOM     19  C4  OHN d          40.006  10.919   0.698  0.00  0.00     0.000 C 
BRANCH  19  20
ATOM     20  C3  OHN d          40.228  11.473   2.092  0.00  0.00    -0.000 C 
BRANCH  20  21
ATOM     21  C2  OHN d          39.843  10.431   3.117  0.00  0.00    -0.005 C 
ATOM     22  C1  OHN d          40.094  11.026   4.475  0.00  0.00     0.005 C 
ENDBRANCH  20  21
ENDBRANCH  19  20
ENDBRANCH  18  19
ENDBRANCH  17  18
ENDBRANCH  16  17
ENDBRANCH  15  16
ENDBRANCH  14  15
ENDBRANCH   1  14
TORSDOF 11
