#

@<TRIPOS>MOLECULE
OHN
 48 48 0 0 0
SMALL
USER_CHARGES

@<TRIPOS>ATOM
      1 C1         40.0940   11.0260    4.4750 C.3       1 OHN        -0.0653
      2 C2         39.8430   10.4310    3.1170 C.3       1 OHN        -0.0559
      3 C3         40.2280   11.4730    2.0920 C.3       1 OHN        -0.0533
      4 C4         40.0060   10.9190    0.6980 C.3       1 OHN        -0.0531
      5 C5         40.8720   11.6610   -0.2960 C.3       1 OHN        -0.0531
      6 C6         40.0590   12.7560   -0.9690 C.3       1 OHN        -0.0530
      7 C7         41.0210   13.6900   -1.7110 C.3       1 OHN        -0.0527
      8 C8         40.2710   14.9050   -2.2340 C.3       1 OHN        -0.0464
      9 C9         40.7070   16.0390   -1.3380 C.3       1 OHN         0.0063
     10 C10        39.8780   17.2670   -1.5360 C.2       1 OHN         0.1421
     11 O1         39.8810   17.8470   -2.6080 O.2       1 OHN        -0.2969
     12 C11        39.1040   17.7840   -0.3690 C.3       1 OHN         0.0824
     13 C12        38.7630   19.2380   -0.5670 C.2       1 OHN         0.2208
     14 O2         37.7790   19.5030   -1.2160 O.2       1 OHN        -0.2753
     15 N1         39.5410   20.1660   -0.0250 N.am      1 OHN        -0.3019
     16 C13        39.1770   21.5290   -0.2840 C.3       1 OHN         0.1235
     17 C14        39.2040   22.4440    0.9380 C.3       1 OHN         0.0103
     18 C15        39.7880   23.7950    0.4910 C.3       1 OHN         0.0947
     19 C16        40.1410   22.2170   -1.1720 C.2       1 OHN         0.3278
     20 O3         40.5820   21.7470   -2.1860 O.2       1 OHN        -0.2487
     21 O4         40.4860   23.5200   -0.7100 O.3       1 OHN        -0.4633
     22 H1         38.7890   10.1750    3.0110 H         1 OHN         0.0263
     23 H2         40.4550    9.5390    2.9850 H         1 OHN         0.0263
     24 H3         39.6140   12.3630    2.2310 H         1 OHN         0.0265
     25 H4         41.2790   11.7340    2.2160 H         1 OHN         0.0265
     26 H5         38.9580   11.0390    0.4240 H         1 OHN         0.0265
     27 H6         40.2650    9.8600    0.6840 H         1 OHN         0.0265
     28 H7         41.7190   12.1070    0.2250 H         1 OHN         0.0265
     29 H8         41.2360   10.9640   -1.0510 H         1 OHN         0.0265
     30 H9         39.5070   13.3190   -0.2160 H         1 OHN         0.0265
     31 H10        39.3610   12.3110   -1.6780 H         1 OHN         0.0265
     32 H11        41.4690   13.1550   -2.5490 H         1 OHN         0.0265
     33 H12        41.8060   14.0160   -1.0290 H         1 OHN         0.0265
     34 H13        40.5420   15.1080   -3.2700 H         1 OHN         0.0269
     35 H14        39.1960   14.7500   -2.1490 H         1 OHN         0.0269
     36 H15        40.6180   15.7200   -0.3000 H         1 OHN         0.0342
     37 H16        41.7500   16.2770   -1.5480 H         1 OHN         0.0342
     38 H17        38.1830   17.2100   -0.2660 H         1 OHN         0.0436
     39 H18        39.7000   17.6740    0.5370 H         1 OHN         0.0436
     40 H19        40.3440   19.9260    0.5380 H         1 OHN         0.1495
     41 H20        38.1850   21.5590   -0.7360 H         1 OHN         0.0615
     42 H21        38.1930   22.5840    1.3200 H         1 OHN         0.0321
     43 H22        39.8350   22.0070    1.7130 H         1 OHN         0.0321
     44 H23        40.4690   24.1860    1.2470 H         1 OHN         0.0698
     45 H24        38.9850   24.5080    0.3040 H         1 OHN         0.0698
     46 H25        39.8270   10.3020    5.2450 H         1 OHN         0.0230
     47 H26        39.4880   11.9240    4.5960 H         1 OHN         0.0230
     48 H27        41.1490   11.2840    4.5690 H         1 OHN         0.0230
@<TRIPOS>BOND
     1   16   15 1  
     2   16   17 1  
     3   16   19 1  
     4   16   41 1  
     5   12   10 1  
     6   12   13 1  
     7   12   38 1  
     8   12   39 1  
     9   10   11 2  
    10   10    9 1  
    11    9    8 1  
    12    9   36 1  
    13    9   37 1  
    14    8   34 1  
    15    8    7 1  
    16    8   35 1  
    17    7   32 1  
    18    7   33 1  
    19    7    6 1  
    20    6   30 1  
    21    6   31 1  
    22    6    5 1  
    23    5    4 1  
    24    5   28 1  
    25    5   29 1  
    26    4    3 1  
    27    4   26 1  
    28    4   27 1  
    29    3    2 1  
    30    3   24 1  
    31    3   25 1  
    32   19   20 2  
    33   19   21 1  
    34    2    1 1  
    35    2   22 1  
    36    2   23 1  
    37    1   46 1  
    38    1   47 1  
    39    1   48 1  
    40   18   21 1  
    41   18   17 1  
    42   18   44 1  
    43   18   45 1  
    44   17   42 1  
    45   17   43 1  
    46   13   15 am 
    47   13   14 2  
    48   40   15 1  
