REMARK  3 active torsions:
REMARK  status: ('A' for Active; 'I' for Inactive)
REMARK    1  A    between atoms: O2_2  and  C6_10 
REMARK    2  A    between atoms: O4_4  and  C9_13 
REMARK    3  A    between atoms: C3_7  and  C5_9 
ROOT
ATOM      1  O1  UNK     1       0.235  -0.822   0.051  1.00  0.00    -0.309 OA
ATOM      2  O3  UNK     1      -1.304   2.943  -0.186  1.00  0.00    -0.287 OA
ATOM      3  C1  UNK     1      -1.717   0.621  -0.036  1.00  0.00     0.081 A 
ATOM      4  C2  UNK     1      -1.125  -0.638   0.044  1.00  0.00     0.095 A 
ATOM      5  C3  UNK     1       1.053   0.294  -0.033  1.00  0.00     0.090 A 
ATOM      6  C4  UNK     1      -0.853   1.808  -0.116  1.00  0.00     0.190 A 
ATOM      7  C6  UNK     1      -3.108   0.749  -0.039  1.00  0.00     0.085 A 
ATOM      8  C7  UNK     1       0.603   1.557  -0.108  1.00  0.00     0.094 A 
ATOM      9  C8  UNK     1      -1.922  -1.780   0.123  1.00  0.00     0.075 A 
ATOM     10  C9  UNK     1      -3.312  -1.657   0.120  1.00  0.00     0.071 A 
ATOM     11  C10 UNK     1      -3.903  -0.395   0.040  1.00  0.00     0.074 A 
ENDROOT
BRANCH   5  12
ATOM     12  C5  UNK     1       2.496  -0.016  -0.011  1.00  0.00    -0.002 A 
ATOM     13  C12 UNK     1       2.963  -1.220  -0.545  1.00  0.00     0.014 A 
ATOM     14  C14 UNK     1       4.327  -1.514  -0.524  1.00  0.00     0.001 A 
ATOM     15  C15 UNK     1       5.228  -0.605   0.030  1.00  0.00     0.000 A 
ATOM     16  C13 UNK     1       4.765   0.598   0.564  1.00  0.00     0.001 A 
ATOM     17  C11 UNK     1       3.402   0.892   0.543  1.00  0.00     0.014 A 
ENDBRANCH   5  12
BRANCH  10  18
ATOM     18  O4  UNK     1      -4.093  -2.770   0.198  1.00  0.00    -0.361 OA
ATOM     19  H10 UNK     1      -5.027  -2.501   0.184  1.00  0.00     0.217 HD
ENDBRANCH  10  18
BRANCH   7  20
ATOM     20  O2  UNK     1      -3.734   1.956  -0.115  1.00  0.00    -0.360 OA
ATOM     21  H9  UNK     1      -3.084   2.673  -0.167  1.00  0.00     0.217 HD
ENDBRANCH   7  20
TORSDOF 3
