@<TRIPOS>MOLECULE
chrysin.pdb
29 31 1 0 0
SMALL
NO_CHARGES


@<TRIPOS>ATOM
      1 O1          0.2350   -0.8220    0.0510 O.3       1 UNK    0.0000
      2 O2         -3.7340    1.9560   -0.1150 O.3       1 UNK    0.0000
      3 O3         -1.3040    2.9430   -0.1860 O.2       1 UNK    0.0000
      4 O4         -4.0930   -2.7700    0.1980 O.3       1 UNK    0.0000
      5 C1         -1.7170    0.6210   -0.0360 C.ar      1 UNK    0.0000
      6 C2         -1.1250   -0.6380    0.0440 C.ar      1 UNK    0.0000
      7 C3          1.0530    0.2940   -0.0330 C.2       1 UNK    0.0000
      8 C4         -0.8530    1.8080   -0.1160 C.2       1 UNK    0.0000
      9 C5          2.4960   -0.0160   -0.0110 C.ar      1 UNK    0.0000
     10 C6         -3.1080    0.7490   -0.0390 C.ar      1 UNK    0.0000
     11 C7          0.6030    1.5570   -0.1080 C.2       1 UNK    0.0000
     12 C8         -1.9220   -1.7800    0.1230 C.ar      1 UNK    0.0000
     13 C9         -3.3120   -1.6570    0.1200 C.ar      1 UNK    0.0000
     14 C10        -3.9030   -0.3950    0.0400 C.ar      1 UNK    0.0000
     15 C11         3.4020    0.8920    0.5430 C.ar      1 UNK    0.0000
     16 C12         2.9630   -1.2200   -0.5450 C.ar      1 UNK    0.0000
     17 C13         4.7650    0.5980    0.5640 C.ar      1 UNK    0.0000
     18 C14         4.3270   -1.5140   -0.5240 C.ar      1 UNK    0.0000
     19 C15         5.2280   -0.6050    0.0300 C.ar      1 UNK    0.0000
     20 H1          1.2440    2.4270   -0.1860 H         1 UNK    0.0000
     21 H2         -1.4640   -2.7640    0.1860 H         1 UNK    0.0000
     22 H3         -4.9860   -0.2980    0.0380 H         1 UNK    0.0000
     23 H4          3.0800    1.8290    0.9890 H         1 UNK    0.0000
     24 H5          2.2840   -1.9430   -0.9910 H         1 UNK    0.0000
     25 H6          5.4670    1.3040    1.0000 H         1 UNK    0.0000
     26 H7          4.6870   -2.4500   -0.9410 H         1 UNK    0.0000
     27 H8          6.2890   -0.8340    0.0470 H         1 UNK    0.0000
     28 H9         -3.0840    2.6730   -0.1670 H         1 UNK    0.0000
     29 H10        -5.0270   -2.5010    0.1840 H         1 UNK    0.0000
@<TRIPOS>BOND
     1    1    6 1
     2    1    7 1
     3    2   10 1
     4    2   28 1
     5    3    8 2
     6    4   13 1
     7    4   29 1
     8    5    6 ar
     9    5    8 1
    10    5   10 ar
    11    6   12 ar
    12    7    9 1
    13    7   11 2
    14    8   11 2
    15    9   15 ar
    16    9   16 ar
    17   10   14 ar
    18   11   20 1
    19   12   13 ar
    20   12   21 1
    21   13   14 ar
    22   14   22 1
    23   15   17 ar
    24   15   23 1
    25   16   18 ar
    26   16   24 1
    27   17   19 ar
    28   17   25 1
    29   18   19 ar
    30   18   26 1
    31   19   27 1
@<TRIPOS>SUBSTRUCTURE
     1 UNK     1 RESIDUE           4 A     UNK     0 ROOT
