REMARK  6 active torsions:
REMARK  status: ('A' for Active; 'I' for Inactive)
REMARK    1  A    between atoms: O2_2  and  C5_12 
REMARK    2  A    between atoms: O3_3  and  C7_14 
REMARK    3  A    between atoms: O5_5  and  C9_16 
REMARK    4  A    between atoms: O6_6  and  C13_20 
REMARK    5  A    between atoms: O7_7  and  C15_22 
REMARK    6  A    between atoms: C3_10  and  C4_11 
ROOT
ATOM      1  O1  UNK A          -0.326  -0.866  -0.125  0.00  0.00    -0.306 OA
ATOM      2  O4  UNK A          -2.041   2.825   0.085  0.00  0.00    -0.284 OA
ATOM      3  C1  UNK A          -2.336   0.486   0.023  0.00  0.00     0.084 A 
ATOM      4  C2  UNK A          -1.689  -0.746  -0.052  0.00  0.00     0.096 A 
ATOM      5  C3  UNK A           0.442   0.288  -0.110  0.00  0.00     0.123 A 
ATOM      6  C5  UNK A          -0.058   1.536  -0.049  0.00  0.00     0.152 A 
ATOM      7  C6  UNK A          -1.528   1.715   0.026  0.00  0.00     0.223 A 
ATOM      8  C7  UNK A          -3.730   0.547   0.094  0.00  0.00     0.085 A 
ATOM      9  C8  UNK A          -2.434  -1.926  -0.059  0.00  0.00     0.075 A 
ATOM     10  C9  UNK A          -3.826  -1.869   0.012  0.00  0.00     0.071 A 
ATOM     11  C11 UNK A          -4.472  -0.634   0.088  0.00  0.00     0.074 A 
ENDROOT
BRANCH   5  12
ATOM     12  C4  UNK A           1.888   0.018  -0.193  0.00  0.00     0.004 A 
ATOM     13  C10 UNK A           2.637  -0.143   0.973  0.00  0.00     0.053 A 
ATOM     14  C13 UNK A           4.005  -0.400   0.894  0.00  0.00     0.099 A 
ATOM     15  C15 UNK A           4.626  -0.494  -0.352  0.00  0.00     0.098 A 
ATOM     16  C14 UNK A           3.878  -0.333  -1.518  0.00  0.00     0.040 A 
ATOM     17  C12 UNK A           2.509  -0.077  -1.439  0.00  0.00     0.017 A 
BRANCH  14  18
ATOM     18  O6  UNK A           4.726  -0.554   2.039  0.00  0.00    -0.358 OA
ATOM     19  H9  UNK A           5.664  -0.375   1.863  0.00  0.00     0.217 HD
ENDBRANCH  14  18
BRANCH  15  20
ATOM     20  O7  UNK A           5.962  -0.746  -0.442  0.00  0.00    -0.358 OA
ATOM     21  H10 UNK A           6.271  -1.170   0.374  0.00  0.00     0.217 HD
ENDBRANCH  15  20
ENDBRANCH   5  12
BRANCH   6  22
ATOM     22  O2  UNK A           0.732   2.665  -0.069  0.00  0.00    -0.355 OA
ATOM     23  H6  UNK A           1.668   2.412  -0.123  0.00  0.00     0.218 HD
ENDBRANCH   6  22
BRANCH   8  24
ATOM     24  O3  UNK A          -4.411   1.725   0.169  0.00  0.00    -0.360 OA
ATOM     25  H7  UNK A          -3.796   2.474   0.170  0.00  0.00     0.217 HD
ENDBRANCH   8  24
BRANCH  10  26
ATOM     26  O5  UNK A          -4.554  -3.018   0.006  0.00  0.00    -0.361 OA
ATOM     27  H8  UNK A          -5.499  -2.794   0.061  0.00  0.00     0.217 HD
ENDBRANCH  10  26
TORSDOF 6
