MODEL 1
REMARK VINA RESULT:      -6.0      0.000      0.000
REMARK  3 active torsions:
REMARK  status: ('A' for Active; 'I' for Inactive)
REMARK    1  A    between atoms: O2_2  and  C6_10 
REMARK    2  A    between atoms: O4_4  and  C9_13 
REMARK    3  A    between atoms: C3_7  and  C5_9 
ROOT
ATOM      1  O1  UNK     1      38.800  22.244  11.001  1.00  0.00    -0.309 OA
ATOM      2  O3  UNK     1      37.505  19.825  14.012  1.00  0.00    -0.287 OA
ATOM      3  C1  UNK     1      39.141  20.264  12.365  1.00  0.00     0.081 A 
ATOM      4  C2  UNK     1      39.527  21.133  11.346  1.00  0.00     0.095 A 
ATOM      5  C3  UNK     1      37.627  22.507  11.691  1.00  0.00     0.090 A 
ATOM      6  C4  UNK     1      37.902  20.543  13.105  1.00  0.00     0.190 A 
ATOM      7  C6  UNK     1      39.921  19.147  12.674  1.00  0.00     0.085 A 
ATOM      8  C7  UNK     1      37.154  21.749  12.694  1.00  0.00     0.094 A 
ATOM      9  C8  UNK     1      40.699  20.892  10.630  1.00  0.00     0.075 A 
ATOM     10  C9  UNK     1      41.482  19.777  10.935  1.00  0.00     0.071 A 
ATOM     11  C10 UNK     1      41.093  18.908  11.956  1.00  0.00     0.074 A 
ENDROOT
BRANCH   5  12
ATOM     12  C5  UNK     1      36.927  23.727  11.244  1.00  0.00    -0.002 A 
ATOM     13  C12 UNK     1      37.328  24.979  11.718  1.00  0.00     0.014 A 
ATOM     14  C14 UNK     1      36.667  26.134  11.296  1.00  0.00     0.001 A 
ATOM     15  C15 UNK     1      35.604  26.040  10.399  1.00  0.00     0.000 A 
ATOM     16  C13 UNK     1      35.201  24.792   9.924  1.00  0.00     0.001 A 
ATOM     17  C11 UNK     1      35.861  23.638  10.345  1.00  0.00     0.014 A 
ENDBRANCH   5  12
BRANCH  10  18
ATOM     18  O4  UNK     1      42.627  19.539  10.238  1.00  0.00    -0.361 OA
ATOM     19  H10 UNK     1      43.223  19.000  10.786  1.00  0.00     0.217 HD
ENDBRANCH  10  18
BRANCH   7  20
ATOM     20  O2  UNK     1      39.587  18.269  13.660  1.00  0.00    -0.360 OA
ATOM     21  H9  UNK     1      40.381  17.956  14.119  1.00  0.00     0.217 HD
ENDBRANCH   7  20
TORSDOF 3
ENDMDL
MODEL 2
REMARK VINA RESULT:      -5.9      3.125      5.410
REMARK  3 active torsions:
REMARK  status: ('A' for Active; 'I' for Inactive)
REMARK    1  A    between atoms: O2_2  and  C6_10 
REMARK    2  A    between atoms: O4_4  and  C9_13 
REMARK    3  A    between atoms: C3_7  and  C5_9 
ROOT
ATOM      1  O1  UNK     1      42.668  20.881  10.636  1.00  0.00    -0.309 OA
ATOM      2  O3  UNK     1      43.681  17.193  12.042  1.00  0.00    -0.287 OA
ATOM      3  C1  UNK     1      44.403  19.265  11.164  1.00  0.00     0.081 A 
ATOM      4  C2  UNK     1      43.988  20.510  10.696  1.00  0.00     0.095 A 
ATOM      5  C3  UNK     1      41.708  19.972  11.053  1.00  0.00     0.090 A 
ATOM      6  C4  UNK     1      43.388  18.302  11.616  1.00  0.00     0.190 A 
ATOM      7  C6  UNK     1      45.762  18.942  11.203  1.00  0.00     0.085 A 
ATOM      8  C7  UNK     1      41.982  18.747  11.529  1.00  0.00     0.094 A 
ATOM      9  C8  UNK     1      44.931  21.443  10.263  1.00  0.00     0.075 A 
ATOM     10  C9  UNK     1      46.289  21.124  10.300  1.00  0.00     0.071 A 
ATOM     11  C10 UNK     1      46.703  19.877  10.770  1.00  0.00     0.074 A 
ENDROOT
BRANCH   5  12
ATOM     12  C5  UNK     1      40.323  20.474  10.952  1.00  0.00    -0.002 A 
ATOM     13  C12 UNK     1      39.896  21.128   9.794  1.00  0.00     0.014 A 
ATOM     14  C14 UNK     1      38.587  21.603   9.698  1.00  0.00     0.001 A 
ATOM     15  C15 UNK     1      37.702  21.425  10.761  1.00  0.00     0.000 A 
ATOM     16  C13 UNK     1      38.125  20.772  11.919  1.00  0.00     0.001 A 
ATOM     17  C11 UNK     1      39.432  20.298  12.015  1.00  0.00     0.014 A 
ENDBRANCH   5  12
BRANCH  10  18
ATOM     18  O4  UNK     1      47.212  22.033   9.879  1.00  0.00    -0.361 OA
ATOM     19  H10 UNK     1      47.048  22.879  10.327  1.00  0.00     0.217 HD
ENDBRANCH  10  18
BRANCH   7  20
ATOM     20  O2  UNK     1      46.218  17.740  11.653  1.00  0.00    -0.360 OA
ATOM     21  H9  UNK     1      46.391  17.143  10.909  1.00  0.00     0.217 HD
ENDBRANCH   7  20
TORSDOF 3
ENDMDL
MODEL 3
REMARK VINA RESULT:      -5.9      3.127      5.384
REMARK  3 active torsions:
REMARK  status: ('A' for Active; 'I' for Inactive)
REMARK    1  A    between atoms: O2_2  and  C6_10 
REMARK    2  A    between atoms: O4_4  and  C9_13 
REMARK    3  A    between atoms: C3_7  and  C5_9 
ROOT
ATOM      1  O1  UNK     1      42.662  20.867  10.635  1.00  0.00    -0.309 OA
ATOM      2  O3  UNK     1      43.678  17.189  12.062  1.00  0.00    -0.287 OA
ATOM      3  C1  UNK     1      44.399  19.256  11.171  1.00  0.00     0.081 A 
ATOM      4  C2  UNK     1      43.982  20.498  10.696  1.00  0.00     0.095 A 
ATOM      5  C3  UNK     1      41.702  19.961  11.059  1.00  0.00     0.090 A 
ATOM      6  C4  UNK     1      43.385  18.295  11.631  1.00  0.00     0.190 A 
ATOM      7  C6  UNK     1      45.757  18.933  11.210  1.00  0.00     0.085 A 
ATOM      8  C7  UNK     1      41.978  18.739  11.543  1.00  0.00     0.094 A 
ATOM      9  C8  UNK     1      44.924  21.428  10.256  1.00  0.00     0.075 A 
ATOM     10  C9  UNK     1      46.282  21.110  10.293  1.00  0.00     0.071 A 
ATOM     11  C10 UNK     1      46.697  19.865  10.770  1.00  0.00     0.074 A 
ENDROOT
BRANCH   5  12
ATOM     12  C5  UNK     1      40.317  20.462  10.958  1.00  0.00    -0.002 A 
ATOM     13  C12 UNK     1      39.427  20.281  12.019  1.00  0.00     0.014 A 
ATOM     14  C14 UNK     1      38.117  20.753  11.924  1.00  0.00     0.001 A 
ATOM     15  C15 UNK     1      37.694  21.408  10.767  1.00  0.00     0.000 A 
ATOM     16  C13 UNK     1      38.581  21.590   9.706  1.00  0.00     0.001 A 
ATOM     17  C11 UNK     1      39.890  21.118   9.801  1.00  0.00     0.014 A 
ENDBRANCH   5  12
BRANCH  10  18
ATOM     18  O4  UNK     1      47.205  22.016   9.866  1.00  0.00    -0.361 OA
ATOM     19  H10 UNK     1      46.756  22.858   9.678  1.00  0.00     0.217 HD
ENDBRANCH  10  18
BRANCH   7  20
ATOM     20  O2  UNK     1      46.214  17.734  11.666  1.00  0.00    -0.360 OA
ATOM     21  H9  UNK     1      46.657  17.247  10.955  1.00  0.00     0.217 HD
ENDBRANCH   7  20
TORSDOF 3
ENDMDL
MODEL 4
REMARK VINA RESULT:      -5.8      3.828      5.297
REMARK  3 active torsions:
REMARK  status: ('A' for Active; 'I' for Inactive)
REMARK    1  A    between atoms: O2_2  and  C6_10 
REMARK    2  A    between atoms: O4_4  and  C9_13 
REMARK    3  A    between atoms: C3_7  and  C5_9 
ROOT
ATOM      1  O1  UNK     1      41.556  22.070  12.254  1.00  0.00    -0.309 OA
ATOM      2  O3  UNK     1      44.101  19.382  10.552  1.00  0.00    -0.287 OA
ATOM      3  C1  UNK     1      42.168  19.753  11.860  1.00  0.00     0.081 A 
ATOM      4  C2  UNK     1      41.337  20.725  12.414  1.00  0.00     0.095 A 
ATOM      5  C3  UNK     1      42.656  22.477  11.516  1.00  0.00     0.090 A 
ATOM      6  C4  UNK     1      43.331  20.180  11.069  1.00  0.00     0.190 A 
ATOM      7  C6  UNK     1      41.896  18.397  12.055  1.00  0.00     0.085 A 
ATOM      8  C7  UNK     1      43.525  21.638  10.929  1.00  0.00     0.094 A 
ATOM      9  C8  UNK     1      40.226  20.346  13.167  1.00  0.00     0.075 A 
ATOM     10  C9  UNK     1      39.951  18.992  13.364  1.00  0.00     0.071 A 
ATOM     11  C10 UNK     1      40.784  18.020  12.809  1.00  0.00     0.074 A 
ENDROOT
BRANCH   5  12
ATOM     12  C5  UNK     1      42.794  23.943  11.402  1.00  0.00    -0.002 A 
ATOM     13  C12 UNK     1      43.610  24.495  10.411  1.00  0.00     0.014 A 
ATOM     14  C14 UNK     1      43.741  25.880  10.303  1.00  0.00     0.001 A 
ATOM     15  C15 UNK     1      43.057  26.717  11.185  1.00  0.00     0.000 A 
ATOM     16  C13 UNK     1      42.242  26.168  12.175  1.00  0.00     0.001 A 
ATOM     17  C11 UNK     1      42.110  24.784  12.283  1.00  0.00     0.014 A 
ENDBRANCH   5  12
BRANCH  10  18
ATOM     18  O4  UNK     1      38.866  18.619  14.098  1.00  0.00    -0.361 OA
ATOM     19  H10 UNK     1      38.770  19.227  14.850  1.00  0.00     0.217 HD
ENDBRANCH  10  18
BRANCH   7  20
ATOM     20  O2  UNK     1      42.677  17.409  11.535  1.00  0.00    -0.360 OA
ATOM     21  H9  UNK     1      42.503  16.568  11.982  1.00  0.00     0.217 HD
ENDBRANCH   7  20
TORSDOF 3
ENDMDL
MODEL 5
REMARK VINA RESULT:      -5.8      3.118      6.654
REMARK  3 active torsions:
REMARK  status: ('A' for Active; 'I' for Inactive)
REMARK    1  A    between atoms: O2_2  and  C6_10 
REMARK    2  A    between atoms: O4_4  and  C9_13 
REMARK    3  A    between atoms: C3_7  and  C5_9 
ROOT
ATOM      1  O1  UNK     1      36.435  23.835  10.510  1.00  0.00    -0.309 OA
ATOM      2  O3  UNK     1      34.284  22.824  13.819  1.00  0.00    -0.287 OA
ATOM      3  C1  UNK     1      34.438  24.136  11.860  1.00  0.00     0.081 A 
ATOM      4  C2  UNK     1      35.224  24.434  10.748  1.00  0.00     0.095 A 
ATOM      5  C3  UNK     1      36.899  22.898  11.420  1.00  0.00     0.090 A 
ATOM      6  C4  UNK     1      34.922  23.136  12.823  1.00  0.00     0.190 A 
ATOM      7  C6  UNK     1      33.213  24.778  12.052  1.00  0.00     0.085 A 
ATOM      8  C7  UNK     1      36.232  22.522  12.524  1.00  0.00     0.094 A 
ATOM      9  C8  UNK     1      34.787  25.378   9.818  1.00  0.00     0.075 A 
ATOM     10  C9  UNK     1      33.563  26.021  10.006  1.00  0.00     0.071 A 
ATOM     11  C10 UNK     1      32.778  25.721  11.120  1.00  0.00     0.074 A 
ENDROOT
BRANCH   5  12
ATOM     12  C5  UNK     1      38.206  22.312  11.065  1.00  0.00    -0.002 A 
ATOM     13  C12 UNK     1      39.324  22.553  11.868  1.00  0.00     0.014 A 
ATOM     14  C14 UNK     1      40.561  21.999  11.532  1.00  0.00     0.001 A 
ATOM     15  C15 UNK     1      40.682  21.202  10.395  1.00  0.00     0.000 A 
ATOM     16  C13 UNK     1      39.568  20.959   9.591  1.00  0.00     0.001 A 
ATOM     17  C11 UNK     1      38.332  21.512   9.926  1.00  0.00     0.014 A 
ENDBRANCH   5  12
BRANCH  10  18
ATOM     18  O4  UNK     1      33.133  26.942   9.099  1.00  0.00    -0.361 OA
ATOM     19  H10 UNK     1      32.770  26.477   8.326  1.00  0.00     0.217 HD
ENDBRANCH  10  18
BRANCH   7  20
ATOM     20  O2  UNK     1      32.409  24.521  13.121  1.00  0.00    -0.360 OA
ATOM     21  H9  UNK     1      32.097  23.604  13.099  1.00  0.00     0.217 HD
ENDBRANCH   7  20
TORSDOF 3
ENDMDL
MODEL 6
REMARK VINA RESULT:      -5.7      3.683      4.770
REMARK  3 active torsions:
REMARK  status: ('A' for Active; 'I' for Inactive)
REMARK    1  A    between atoms: O2_2  and  C6_10 
REMARK    2  A    between atoms: O4_4  and  C9_13 
REMARK    3  A    between atoms: C3_7  and  C5_9 
ROOT
ATOM      1  O1  UNK     1      43.308  21.712  11.554  1.00  0.00    -0.309 OA
ATOM      2  O3  UNK     1      39.509  20.440  12.292  1.00  0.00    -0.287 OA
ATOM      3  C1  UNK     1      41.790  19.879  12.041  1.00  0.00     0.081 A 
ATOM      4  C2  UNK     1      43.065  20.381  11.783  1.00  0.00     0.095 A 
ATOM      5  C3  UNK     1      42.238  22.592  11.573  1.00  0.00     0.090 A 
ATOM      6  C4  UNK     1      40.653  20.810  12.070  1.00  0.00     0.190 A 
ATOM      7  C6  UNK     1      41.601  18.514  12.267  1.00  0.00     0.085 A 
ATOM      8  C7  UNK     1      40.967  22.231  11.815  1.00  0.00     0.094 A 
ATOM      9  C8  UNK     1      44.161  19.519  11.751  1.00  0.00     0.075 A 
ATOM     10  C9  UNK     1      43.976  18.154  11.977  1.00  0.00     0.071 A 
ATOM     11  C10 UNK     1      42.699  17.653  12.235  1.00  0.00     0.074 A 
ENDROOT
BRANCH   5  12
ATOM     12  C5  UNK     1      42.611  23.998  11.321  1.00  0.00    -0.002 A 
ATOM     13  C12 UNK     1      43.420  24.324  10.230  1.00  0.00     0.014 A 
ATOM     14  C14 UNK     1      43.775  25.653   9.992  1.00  0.00     0.001 A 
ATOM     15  C15 UNK     1      43.320  26.659  10.843  1.00  0.00     0.000 A 
ATOM     16  C13 UNK     1      42.512  26.337  11.934  1.00  0.00     0.001 A 
ATOM     17  C11 UNK     1      42.158  25.009  12.172  1.00  0.00     0.014 A 
ENDBRANCH   5  12
BRANCH  10  18
ATOM     18  O4  UNK     1      45.045  17.310  11.948  1.00  0.00    -0.361 OA
ATOM     19  H10 UNK     1      44.817  16.532  11.411  1.00  0.00     0.217 HD
ENDBRANCH  10  18
BRANCH   7  20
ATOM     20  O2  UNK     1      40.377  17.975  12.523  1.00  0.00    -0.360 OA
ATOM     21  H9  UNK     1      39.986  18.379  13.313  1.00  0.00     0.217 HD
ENDBRANCH   7  20
TORSDOF 3
ENDMDL
MODEL 7
REMARK VINA RESULT:      -5.7      3.575      5.753
REMARK  3 active torsions:
REMARK  status: ('A' for Active; 'I' for Inactive)
REMARK    1  A    between atoms: O2_2  and  C6_10 
REMARK    2  A    between atoms: O4_4  and  C9_13 
REMARK    3  A    between atoms: C3_7  and  C5_9 
ROOT
ATOM      1  O1  UNK     1      42.701  20.997  10.778  1.00  0.00    -0.309 OA
ATOM      2  O3  UNK     1      44.673  24.550  11.074  1.00  0.00    -0.287 OA
ATOM      3  C1  UNK     1      44.809  22.196  10.909  1.00  0.00     0.081 A 
ATOM      4  C2  UNK     1      44.073  21.017  10.808  1.00  0.00     0.095 A 
ATOM      5  C3  UNK     1      42.020  22.201  10.859  1.00  0.00     0.090 A 
ATOM      6  C4  UNK     1      44.091  23.477  10.987  1.00  0.00     0.190 A 
ATOM      7  C6  UNK     1      46.205  22.158  10.936  1.00  0.00     0.085 A 
ATOM      8  C7  UNK     1      42.616  23.401  10.953  1.00  0.00     0.094 A 
ATOM      9  C8  UNK     1      44.730  19.789  10.731  1.00  0.00     0.075 A 
ATOM     10  C9  UNK     1      46.124  19.746  10.757  1.00  0.00     0.071 A 
ATOM     11  C10 UNK     1      46.860  20.928  10.859  1.00  0.00     0.074 A 
ENDROOT
BRANCH   5  12
ATOM     12  C5  UNK     1      40.551  22.066  10.811  1.00  0.00    -0.002 A 
ATOM     13  C12 UNK     1      39.946  21.360   9.768  1.00  0.00     0.014 A 
ATOM     14  C14 UNK     1      38.557  21.232   9.722  1.00  0.00     0.001 A 
ATOM     15  C15 UNK     1      37.770  21.808  10.719  1.00  0.00     0.000 A 
ATOM     16  C13 UNK     1      38.371  22.512  11.762  1.00  0.00     0.001 A 
ATOM     17  C11 UNK     1      39.759  22.641  11.808  1.00  0.00     0.014 A 
ENDBRANCH   5  12
BRANCH  10  18
ATOM     18  O4  UNK     1      46.769  18.548  10.681  1.00  0.00    -0.361 OA
ATOM     19  H10 UNK     1      46.517  18.006  11.448  1.00  0.00     0.217 HD
ENDBRANCH  10  18
BRANCH   7  20
ATOM     20  O2  UNK     1      46.969  23.281  11.033  1.00  0.00    -0.360 OA
ATOM     21  H9  UNK     1      47.892  23.084  10.814  1.00  0.00     0.217 HD
ENDBRANCH   7  20
TORSDOF 3
ENDMDL
MODEL 8
REMARK VINA RESULT:      -5.6      1.845      3.813
REMARK  3 active torsions:
REMARK  status: ('A' for Active; 'I' for Inactive)
REMARK    1  A    between atoms: O2_2  and  C6_10 
REMARK    2  A    between atoms: O4_4  and  C9_13 
REMARK    3  A    between atoms: C3_7  and  C5_9 
ROOT
ATOM      1  O1  UNK     1      39.856  19.906  12.147  1.00  0.00    -0.309 OA
ATOM      2  O3  UNK     1      43.514  20.663  10.521  1.00  0.00    -0.287 OA
ATOM      3  C1  UNK     1      42.142  19.186  11.755  1.00  0.00     0.081 A 
ATOM      4  C2  UNK     1      40.868  18.990  12.284  1.00  0.00     0.095 A 
ATOM      5  C3  UNK     1      40.116  21.080  11.457  1.00  0.00     0.090 A 
ATOM      6  C4  UNK     1      42.420  20.426  11.015  1.00  0.00     0.190 A 
ATOM      7  C6  UNK     1      43.135  18.219  11.925  1.00  0.00     0.085 A 
ATOM      8  C7  UNK     1      41.299  21.381  10.897  1.00  0.00     0.094 A 
ATOM      9  C8  UNK     1      40.578  17.822  12.989  1.00  0.00     0.075 A 
ATOM     10  C9  UNK     1      41.567  16.853  13.162  1.00  0.00     0.071 A 
ATOM     11  C10 UNK     1      42.842  17.051  12.630  1.00  0.00     0.074 A 
ENDROOT
BRANCH   5  12
ATOM     12  C5  UNK     1      38.958  21.991  11.363  1.00  0.00    -0.002 A 
ATOM     13  C12 UNK     1      38.841  23.070  12.243  1.00  0.00     0.014 A 
ATOM     14  C14 UNK     1      37.746  23.931  12.155  1.00  0.00     0.001 A 
ATOM     15  C15 UNK     1      36.766  23.716  11.187  1.00  0.00     0.000 A 
ATOM     16  C13 UNK     1      36.881  22.640  10.306  1.00  0.00     0.001 A 
ATOM     17  C11 UNK     1      37.974  21.780  10.394  1.00  0.00     0.014 A 
ENDBRANCH   5  12
BRANCH  10  18
ATOM     18  O4  UNK     1      41.287  15.710  13.848  1.00  0.00    -0.361 OA
ATOM     19  H10 UNK     1      41.914  15.624  14.585  1.00  0.00     0.217 HD
ENDBRANCH  10  18
BRANCH   7  20
ATOM     20  O2  UNK     1      44.394  18.364  11.427  1.00  0.00    -0.360 OA
ATOM     21  H9  UNK     1      45.049  18.018  12.052  1.00  0.00     0.217 HD
ENDBRANCH   7  20
TORSDOF 3
ENDMDL
MODEL 9
REMARK VINA RESULT:      -5.6      1.861      4.001
REMARK  3 active torsions:
REMARK  status: ('A' for Active; 'I' for Inactive)
REMARK    1  A    between atoms: O2_2  and  C6_10 
REMARK    2  A    between atoms: O4_4  and  C9_13 
REMARK    3  A    between atoms: C3_7  and  C5_9 
ROOT
ATOM      1  O1  UNK     1      39.890  19.869  12.145  1.00  0.00    -0.309 OA
ATOM      2  O3  UNK     1      43.539  20.585  10.481  1.00  0.00    -0.287 OA
ATOM      3  C1  UNK     1      42.169  19.131  11.742  1.00  0.00     0.081 A 
ATOM      4  C2  UNK     1      40.898  18.948  12.284  1.00  0.00     0.095 A 
ATOM      5  C3  UNK     1      40.152  21.033  11.440  1.00  0.00     0.090 A 
ATOM      6  C4  UNK     1      42.448  20.360  10.986  1.00  0.00     0.190 A 
ATOM      7  C6  UNK     1      43.157  18.159  11.915  1.00  0.00     0.085 A 
ATOM      8  C7  UNK     1      41.331  21.321  10.867  1.00  0.00     0.094 A 
ATOM      9  C8  UNK     1      40.607  17.789  13.004  1.00  0.00     0.075 A 
ATOM     10  C9  UNK     1      41.591  16.816  13.180  1.00  0.00     0.071 A 
ATOM     11  C10 UNK     1      42.863  17.001  12.635  1.00  0.00     0.074 A 
ENDROOT
BRANCH   5  12
ATOM     12  C5  UNK     1      38.998  21.950  11.345  1.00  0.00    -0.002 A 
ATOM     13  C12 UNK     1      38.011  21.738  10.379  1.00  0.00     0.014 A 
ATOM     14  C14 UNK     1      36.921  22.604  10.289  1.00  0.00     0.001 A 
ATOM     15  C15 UNK     1      36.814  23.685  11.164  1.00  0.00     0.000 A 
ATOM     16  C13 UNK     1      37.798  23.899  12.130  1.00  0.00     0.001 A 
ATOM     17  C11 UNK     1      38.888  23.034  12.220  1.00  0.00     0.014 A 
ENDBRANCH   5  12
BRANCH  10  18
ATOM     18  O4  UNK     1      41.310  15.683  13.881  1.00  0.00    -0.361 OA
ATOM     19  H10 UNK     1      40.461  15.800  14.340  1.00  0.00     0.217 HD
ENDBRANCH  10  18
BRANCH   7  20
ATOM     20  O2  UNK     1      44.413  18.290  11.404  1.00  0.00    -0.360 OA
ATOM     21  H9  UNK     1      44.609  17.564  10.794  1.00  0.00     0.217 HD
ENDBRANCH   7  20
TORSDOF 3
ENDMDL
MODEL 10
REMARK VINA RESULT:      -5.5      3.284      4.425
REMARK  3 active torsions:
REMARK  status: ('A' for Active; 'I' for Inactive)
REMARK    1  A    between atoms: O2_2  and  C6_10 
REMARK    2  A    between atoms: O4_4  and  C9_13 
REMARK    3  A    between atoms: C3_7  and  C5_9 
ROOT
ATOM      1  O1  UNK     1      42.830  23.479  11.473  1.00  0.00    -0.309 OA
ATOM      2  O3  UNK     1      40.190  20.378  11.357  1.00  0.00    -0.287 OA
ATOM      3  C1  UNK     1      42.404  21.132  11.016  1.00  0.00     0.081 A 
ATOM      4  C2  UNK     1      43.253  22.235  11.079  1.00  0.00     0.095 A 
ATOM      5  C3  UNK     1      41.497  23.646  11.814  1.00  0.00     0.090 A 
ATOM      6  C4  UNK     1      40.991  21.302  11.386  1.00  0.00     0.190 A 
ATOM      7  C6  UNK     1      42.890  19.888  10.608  1.00  0.00     0.085 A 
ATOM      8  C7  UNK     1      40.584  22.661  11.800  1.00  0.00     0.094 A 
ATOM      9  C8  UNK     1      44.598  22.100  10.735  1.00  0.00     0.075 A 
ATOM     10  C9  UNK     1      45.088  20.859  10.327  1.00  0.00     0.071 A 
ATOM     11  C10 UNK     1      44.236  19.755  10.264  1.00  0.00     0.074 A 
ENDROOT
BRANCH   5  12
ATOM     12  C5  UNK     1      41.150  25.020  12.228  1.00  0.00    -0.002 A 
ATOM     13  C12 UNK     1      39.838  25.331  12.596  1.00  0.00     0.014 A 
ATOM     14  C14 UNK     1      39.509  26.630  12.987  1.00  0.00     0.001 A 
ATOM     15  C15 UNK     1      40.491  27.620  13.011  1.00  0.00     0.000 A 
ATOM     16  C13 UNK     1      41.801  27.313  12.644  1.00  0.00     0.001 A 
ATOM     17  C11 UNK     1      42.130  26.015  12.254  1.00  0.00     0.014 A 
ENDBRANCH   5  12
BRANCH  10  18
ATOM     18  O4  UNK     1      46.401  20.723   9.991  1.00  0.00    -0.361 OA
ATOM     19  H10 UNK     1      46.512  19.908   9.473  1.00  0.00     0.217 HD
ENDBRANCH  10  18
BRANCH   7  20
ATOM     20  O2  UNK     1      42.101  18.780  10.530  1.00  0.00    -0.360 OA
ATOM     21  H9  UNK     1      41.553  18.697  11.326  1.00  0.00     0.217 HD
ENDBRANCH   7  20
TORSDOF 3
ENDMDL
MODEL 11
REMARK VINA RESULT:      -5.5      3.579      5.271
REMARK  3 active torsions:
REMARK  status: ('A' for Active; 'I' for Inactive)
REMARK    1  A    between atoms: O2_2  and  C6_10 
REMARK    2  A    between atoms: O4_4  and  C9_13 
REMARK    3  A    between atoms: C3_7  and  C5_9 
ROOT
ATOM      1  O1  UNK     1      41.620  23.299  11.657  1.00  0.00    -0.309 OA
ATOM      2  O3  UNK     1      45.640  23.941  11.484  1.00  0.00    -0.287 OA
ATOM      3  C1  UNK     1      43.845  22.425  11.224  1.00  0.00     0.081 A 
ATOM      4  C2  UNK     1      42.462  22.275  11.302  1.00  0.00     0.095 A 
ATOM      5  C3  UNK     1      42.173  24.534  11.959  1.00  0.00     0.090 A 
ATOM      6  C4  UNK     1      44.435  23.736  11.534  1.00  0.00     0.190 A 
ATOM      7  C6  UNK     1      44.654  21.348  10.857  1.00  0.00     0.085 A 
ATOM      8  C7  UNK     1      43.488  24.805  11.914  1.00  0.00     0.094 A 
ATOM      9  C8  UNK     1      41.877  21.042  11.011  1.00  0.00     0.075 A 
ATOM     10  C9  UNK     1      42.681  19.963  10.644  1.00  0.00     0.071 A 
ATOM     11  C10 UNK     1      44.066  20.116  10.566  1.00  0.00     0.074 A 
ENDROOT
BRANCH   5  12
ATOM     12  C5  UNK     1      41.180  25.564  12.321  1.00  0.00    -0.002 A 
ATOM     13  C12 UNK     1      39.863  25.197  12.610  1.00  0.00     0.014 A 
ATOM     14  C14 UNK     1      38.923  26.171  12.952  1.00  0.00     0.001 A 
ATOM     15  C15 UNK     1      39.298  27.513  13.008  1.00  0.00     0.000 A 
ATOM     16  C13 UNK     1      40.613  27.882  12.721  1.00  0.00     0.001 A 
ATOM     17  C11 UNK     1      41.552  26.910  12.379  1.00  0.00     0.014 A 
ENDBRANCH   5  12
BRANCH  10  18
ATOM     18  O4  UNK     1      42.113  18.758  10.358  1.00  0.00    -0.361 OA
ATOM     19  H10 UNK     1      41.152  18.824  10.490  1.00  0.00     0.217 HD
ENDBRANCH  10  18
BRANCH   7  20
ATOM     20  O2  UNK     1      46.009  21.444  10.766  1.00  0.00    -0.360 OA
ATOM     21  H9  UNK     1      46.436  20.826  11.378  1.00  0.00     0.217 HD
ENDBRANCH   7  20
TORSDOF 3
ENDMDL
MODEL 12
REMARK VINA RESULT:      -5.5      4.853      7.831
REMARK  3 active torsions:
REMARK  status: ('A' for Active; 'I' for Inactive)
REMARK    1  A    between atoms: O2_2  and  C6_10 
REMARK    2  A    between atoms: O4_4  and  C9_13 
REMARK    3  A    between atoms: C3_7  and  C5_9 
ROOT
ATOM      1  O1  UNK     1      44.297  18.508  11.669  1.00  0.00    -0.309 OA
ATOM      2  O3  UNK     1      40.983  20.712  10.801  1.00  0.00    -0.287 OA
ATOM      3  C1  UNK     1      41.923  18.901  11.994  1.00  0.00     0.081 A 
ATOM      4  C2  UNK     1      43.094  18.191  12.248  1.00  0.00     0.095 A 
ATOM      5  C3  UNK     1      44.345  19.577  10.789  1.00  0.00     0.090 A 
ATOM      6  C4  UNK     1      41.971  20.042  11.068  1.00  0.00     0.190 A 
ATOM      7  C6  UNK     1      40.725  18.534  12.611  1.00  0.00     0.085 A 
ATOM      8  C7  UNK     1      43.288  20.341  10.469  1.00  0.00     0.094 A 
ATOM      9  C8  UNK     1      43.076  17.105  13.124  1.00  0.00     0.075 A 
ATOM     10  C9  UNK     1      41.881  16.734  13.743  1.00  0.00     0.071 A 
ATOM     11  C10 UNK     1      40.709  17.448  13.487  1.00  0.00     0.074 A 
ENDROOT
BRANCH   5  12
ATOM     12  C5  UNK     1      45.687  19.835  10.230  1.00  0.00    -0.002 A 
ATOM     13  C12 UNK     1      45.868  20.838   9.274  1.00  0.00     0.014 A 
ATOM     14  C14 UNK     1      47.136  21.082   8.744  1.00  0.00     0.001 A 
ATOM     15  C15 UNK     1      48.227  20.325   9.170  1.00  0.00     0.000 A 
ATOM     16  C13 UNK     1      48.050  19.323  10.125  1.00  0.00     0.001 A 
ATOM     17  C11 UNK     1      46.783  19.079  10.654  1.00  0.00     0.014 A 
ENDBRANCH   5  12
BRANCH  10  18
ATOM     18  O4  UNK     1      41.860  15.676  14.600  1.00  0.00    -0.361 OA
ATOM     19  H10 UNK     1      41.034  15.181  14.469  1.00  0.00     0.217 HD
ENDBRANCH  10  18
BRANCH   7  20
ATOM     20  O2  UNK     1      39.554  19.196  12.397  1.00  0.00    -0.360 OA
ATOM     21  H9  UNK     1      39.117  18.862  11.599  1.00  0.00     0.217 HD
ENDBRANCH   7  20
TORSDOF 3
ENDMDL
MODEL 13
REMARK VINA RESULT:      -5.5      2.971      7.163
REMARK  3 active torsions:
REMARK  status: ('A' for Active; 'I' for Inactive)
REMARK    1  A    between atoms: O2_2  and  C6_10 
REMARK    2  A    between atoms: O4_4  and  C9_13 
REMARK    3  A    between atoms: C3_7  and  C5_9 
ROOT
ATOM      1  O1  UNK     1      42.568  20.284  10.484  1.00  0.00    -0.309 OA
ATOM      2  O3  UNK     1      41.400  18.437  13.922  1.00  0.00    -0.287 OA
ATOM      3  C1  UNK     1      40.788  19.731  12.042  1.00  0.00     0.081 A 
ATOM      4  C2  UNK     1      41.254  20.339  10.878  1.00  0.00     0.095 A 
ATOM      5  C3  UNK     1      43.469  19.600  11.284  1.00  0.00     0.090 A 
ATOM      6  C4  UNK     1      41.740  18.996  12.889  1.00  0.00     0.190 A 
ATOM      7  C6  UNK     1      39.440  19.820  12.394  1.00  0.00     0.085 A 
ATOM      8  C7  UNK     1      43.141  18.969  12.423  1.00  0.00     0.094 A 
ATOM      9  C8  UNK     1      40.372  21.041  10.056  1.00  0.00     0.075 A 
ATOM     10  C9  UNK     1      39.024  21.132  10.404  1.00  0.00     0.071 A 
ATOM     11  C10 UNK     1      38.559  20.522  11.570  1.00  0.00     0.074 A 
ENDROOT
BRANCH   5  12
ATOM     12  C5  UNK     1      44.851  19.597  10.765  1.00  0.00    -0.002 A 
ATOM     13  C12 UNK     1      45.803  18.729  11.308  1.00  0.00     0.014 A 
ATOM     14  C14 UNK     1      47.109  18.727  10.818  1.00  0.00     0.001 A 
ATOM     15  C15 UNK     1      47.469  19.591   9.784  1.00  0.00     0.000 A 
ATOM     16  C13 UNK     1      46.521  20.458   9.240  1.00  0.00     0.001 A 
ATOM     17  C11 UNK     1      45.215  20.461   9.729  1.00  0.00     0.014 A 
ENDBRANCH   5  12
BRANCH  10  18
ATOM     18  O4  UNK     1      38.160  21.815   9.603  1.00  0.00    -0.361 OA
ATOM     19  H10 UNK     1      38.607  22.026   8.766  1.00  0.00     0.217 HD
ENDBRANCH  10  18
BRANCH   7  20
ATOM     20  O2  UNK     1      38.936  19.243  13.520  1.00  0.00    -0.360 OA
ATOM     21  H9  UNK     1      38.681  18.324  13.346  1.00  0.00     0.217 HD
ENDBRANCH   7  20
TORSDOF 3
ENDMDL
MODEL 14
REMARK VINA RESULT:      -5.4      4.667      8.318
REMARK  3 active torsions:
REMARK  status: ('A' for Active; 'I' for Inactive)
REMARK    1  A    between atoms: O2_2  and  C6_10 
REMARK    2  A    between atoms: O4_4  and  C9_13 
REMARK    3  A    between atoms: C3_7  and  C5_9 
ROOT
ATOM      1  O1  UNK     1      44.825  22.885  10.634  1.00  0.00    -0.309 OA
ATOM      2  O3  UNK     1      41.233  21.331  11.766  1.00  0.00    -0.287 OA
ATOM      3  C1  UNK     1      42.570  23.255  11.456  1.00  0.00     0.081 A 
ATOM      4  C2  UNK     1      43.821  23.720  11.055  1.00  0.00     0.095 A 
ATOM      5  C3  UNK     1      44.586  21.520  10.616  1.00  0.00     0.090 A 
ATOM      6  C4  UNK     1      42.308  21.809  11.430  1.00  0.00     0.190 A 
ATOM      7  C6  UNK     1      41.584  24.152  11.875  1.00  0.00     0.085 A 
ATOM      8  C7  UNK     1      43.422  20.952  10.973  1.00  0.00     0.094 A 
ATOM      9  C8  UNK     1      44.094  25.088  11.068  1.00  0.00     0.075 A 
ATOM     10  C9  UNK     1      43.112  25.987  11.486  1.00  0.00     0.071 A 
ATOM     11  C10 UNK     1      41.859  25.519  11.888  1.00  0.00     0.074 A 
ENDROOT
BRANCH   5  12
ATOM     12  C5  UNK     1      45.729  20.716  10.142  1.00  0.00    -0.002 A 
ATOM     13  C12 UNK     1      46.375  21.050   8.949  1.00  0.00     0.014 A 
ATOM     14  C14 UNK     1      47.456  20.290   8.500  1.00  0.00     0.001 A 
ATOM     15  C15 UNK     1      47.894  19.194   9.243  1.00  0.00     0.000 A 
ATOM     16  C13 UNK     1      47.251  18.857  10.434  1.00  0.00     0.001 A 
ATOM     17  C11 UNK     1      46.171  19.617  10.883  1.00  0.00     0.014 A 
ENDBRANCH   5  12
BRANCH  10  18
ATOM     18  O4  UNK     1      43.375  27.323  11.500  1.00  0.00    -0.361 OA
ATOM     19  H10 UNK     1      42.642  27.784  11.941  1.00  0.00     0.217 HD
ENDBRANCH  10  18
BRANCH   7  20
ATOM     20  O2  UNK     1      40.347  23.747  12.276  1.00  0.00    -0.360 OA
ATOM     21  H9  UNK     1      39.891  24.462  12.746  1.00  0.00     0.217 HD
ENDBRANCH   7  20
TORSDOF 3
ENDMDL
MODEL 15
REMARK VINA RESULT:      -5.4      3.885      7.501
REMARK  3 active torsions:
REMARK  status: ('A' for Active; 'I' for Inactive)
REMARK    1  A    between atoms: O2_2  and  C6_10 
REMARK    2  A    between atoms: O4_4  and  C9_13 
REMARK    3  A    between atoms: C3_7  and  C5_9 
ROOT
ATOM      1  O1  UNK     1      41.243  23.172  12.214  1.00  0.00    -0.309 OA
ATOM      2  O3  UNK     1      44.525  25.257  10.995  1.00  0.00    -0.287 OA
ATOM      3  C1  UNK     1      42.336  25.316  11.884  1.00  0.00     0.081 A 
ATOM      4  C2  UNK     1      41.248  24.543  12.284  1.00  0.00     0.095 A 
ATOM      5  C3  UNK     1      42.367  22.532  11.715  1.00  0.00     0.090 A 
ATOM      6  C4  UNK     1      43.533  24.641  11.362  1.00  0.00     0.190 A 
ATOM      7  C6  UNK     1      42.286  26.709  11.978  1.00  0.00     0.085 A 
ATOM      8  C7  UNK     1      43.477  23.166  11.303  1.00  0.00     0.094 A 
ATOM      9  C8  UNK     1      40.101  25.158  12.785  1.00  0.00     0.075 A 
ATOM     10  C9  UNK     1      40.046  26.549  12.880  1.00  0.00     0.071 A 
ATOM     11  C10 UNK     1      41.137  27.322  12.479  1.00  0.00     0.074 A 
ENDROOT
BRANCH   5  12
ATOM     12  C5  UNK     1      42.258  21.060  11.688  1.00  0.00    -0.002 A 
ATOM     13  C12 UNK     1      41.276  20.416  12.446  1.00  0.00     0.014 A 
ATOM     14  C14 UNK     1      41.173  19.025  12.422  1.00  0.00     0.001 A 
ATOM     15  C15 UNK     1      42.050  18.273  11.640  1.00  0.00     0.000 A 
ATOM     16  C13 UNK     1      43.032  18.914  10.883  1.00  0.00     0.001 A 
ATOM     17  C11 UNK     1      43.135  20.304  10.907  1.00  0.00     0.014 A 
ENDBRANCH   5  12
BRANCH  10  18
ATOM     18  O4  UNK     1      38.928  27.154  13.369  1.00  0.00    -0.361 OA
ATOM     19  H10 UNK     1      38.875  26.992  14.327  1.00  0.00     0.217 HD
ENDBRANCH  10  18
BRANCH   7  20
ATOM     20  O2  UNK     1      43.321  27.508  11.600  1.00  0.00    -0.360 OA
ATOM     21  H9  UNK     1      44.122  27.285  12.099  1.00  0.00     0.217 HD
ENDBRANCH   7  20
TORSDOF 3
ENDMDL
MODEL 16
REMARK VINA RESULT:      -5.3      2.022      3.203
REMARK  3 active torsions:
REMARK  status: ('A' for Active; 'I' for Inactive)
REMARK    1  A    between atoms: O2_2  and  C6_10 
REMARK    2  A    between atoms: O4_4  and  C9_13 
REMARK    3  A    between atoms: C3_7  and  C5_9 
ROOT
ATOM      1  O1  UNK     1      40.875  22.591  11.125  1.00  0.00    -0.309 OA
ATOM      2  O3  UNK     1      40.813  18.592  11.901  1.00  0.00    -0.287 OA
ATOM      3  C1  UNK     1      42.088  20.497  11.327  1.00  0.00     0.081 A 
ATOM      4  C2  UNK     1      42.039  21.866  11.074  1.00  0.00     0.095 A 
ATOM      5  C3  UNK     1      39.697  21.929  11.434  1.00  0.00     0.090 A 
ATOM      6  C4  UNK     1      40.843  19.792  11.665  1.00  0.00     0.190 A 
ATOM      7  C6  UNK     1      43.303  19.809  11.261  1.00  0.00     0.085 A 
ATOM      8  C7  UNK     1      39.617  20.616  11.704  1.00  0.00     0.094 A 
ATOM      9  C8  UNK     1      43.207  22.559  10.754  1.00  0.00     0.075 A 
ATOM     10  C9  UNK     1      44.422  21.876  10.686  1.00  0.00     0.071 A 
ATOM     11  C10 UNK     1      44.469  20.505  10.940  1.00  0.00     0.074 A 
ENDROOT
BRANCH   5  12
ATOM     12  C5  UNK     1      38.508  22.802  11.468  1.00  0.00    -0.002 A 
ATOM     13  C12 UNK     1      37.375  22.474  10.719  1.00  0.00     0.014 A 
ATOM     14  C14 UNK     1      36.250  23.300  10.750  1.00  0.00     0.001 A 
ATOM     15  C15 UNK     1      36.255  24.455  11.531  1.00  0.00     0.000 A 
ATOM     16  C13 UNK     1      37.384  24.786  12.281  1.00  0.00     0.001 A 
ATOM     17  C11 UNK     1      38.508  23.961  12.250  1.00  0.00     0.014 A 
ENDBRANCH   5  12
BRANCH  10  18
ATOM     18  O4  UNK     1      45.564  22.550  10.375  1.00  0.00    -0.361 OA
ATOM     19  H10 UNK     1      46.266  22.282  10.992  1.00  0.00     0.217 HD
ENDBRANCH  10  18
BRANCH   7  20
ATOM     20  O2  UNK     1      43.403  18.472  11.500  1.00  0.00    -0.360 OA
ATOM     21  H9  UNK     1      44.318  18.174  11.382  1.00  0.00     0.217 HD
ENDBRANCH   7  20
TORSDOF 3
ENDMDL
