MODEL 1
REMARK VINA RESULT:      -7.8      0.000      0.000
REMARK  3 active torsions:
REMARK  status: ('A' for Active; 'I' for Inactive)
REMARK    1  A    between atoms: O2_2  and  C6_10 
REMARK    2  A    between atoms: O4_4  and  C9_13 
REMARK    3  A    between atoms: C3_7  and  C5_9 
ROOT
ATOM      1  O1  UNK     1      39.742  15.663  -0.274  1.00  0.00    -0.309 OA
ATOM      2  O3  UNK     1      40.962  17.276  -3.811  1.00  0.00    -0.287 OA
ATOM      3  C1  UNK     1      39.882  17.599  -1.734  1.00  0.00     0.081 A 
ATOM      4  C2  UNK     1      39.493  16.985  -0.545  1.00  0.00     0.095 A 
ATOM      5  C3  UNK     1      40.401  14.906  -1.230  1.00  0.00     0.090 A 
ATOM      6  C4  UNK     1      40.590  16.802  -2.747  1.00  0.00     0.190 A 
ATOM      7  C6  UNK     1      39.603  18.950  -1.956  1.00  0.00     0.085 A 
ATOM      8  C7  UNK     1      40.831  15.384  -2.409  1.00  0.00     0.094 A 
ATOM      9  C8  UNK     1      38.823  17.720   0.433  1.00  0.00     0.075 A 
ATOM     10  C9  UNK     1      38.541  19.069   0.215  1.00  0.00     0.071 A 
ATOM     11  C10 UNK     1      38.931  19.682  -0.977  1.00  0.00     0.074 A 
ENDROOT
BRANCH   5  12
ATOM     12  C5  UNK     1      40.623  13.501  -0.834  1.00  0.00    -0.002 A 
ATOM     13  C12 UNK     1      40.019  12.993   0.319  1.00  0.00     0.014 A 
ATOM     14  C14 UNK     1      40.228  11.665   0.694  1.00  0.00     0.001 A 
ATOM     15  C15 UNK     1      41.041  10.841  -0.084  1.00  0.00     0.000 A 
ATOM     16  C13 UNK     1      41.645  11.344  -1.237  1.00  0.00     0.001 A 
ATOM     17  C11 UNK     1      41.436  12.671  -1.611  1.00  0.00     0.014 A 
ENDBRANCH   5  12
BRANCH  10  18
ATOM     18  O4  UNK     1      37.887  19.790   1.168  1.00  0.00    -0.361 OA
ATOM     19  H10 UNK     1      38.282  19.597   2.035  1.00  0.00     0.217 HD
ENDBRANCH  10  18
BRANCH   7  20
ATOM     20  O2  UNK     1      39.962  19.595  -3.101  1.00  0.00    -0.360 OA
ATOM     21  H9  UNK     1      40.038  20.548  -2.943  1.00  0.00     0.217 HD
ENDBRANCH   7  20
TORSDOF 3
ENDMDL
MODEL 2
REMARK VINA RESULT:      -7.2      1.273      2.973
REMARK  3 active torsions:
REMARK  status: ('A' for Active; 'I' for Inactive)
REMARK    1  A    between atoms: O2_2  and  C6_10 
REMARK    2  A    between atoms: O4_4  and  C9_13 
REMARK    3  A    between atoms: C3_7  and  C5_9 
ROOT
ATOM      1  O1  UNK     1      40.730  15.129  -2.127  1.00  0.00    -0.309 OA
ATOM      2  O3  UNK     1      38.945  17.833   0.343  1.00  0.00    -0.287 OA
ATOM      3  C1  UNK     1      39.923  17.391  -1.762  1.00  0.00     0.081 A 
ATOM      4  C2  UNK     1      40.526  16.416  -2.555  1.00  0.00     0.095 A 
ATOM      5  C3  UNK     1      40.324  14.787  -0.846  1.00  0.00     0.090 A 
ATOM      6  C4  UNK     1      39.483  17.030  -0.406  1.00  0.00     0.190 A 
ATOM      7  C6  UNK     1      39.741  18.687  -2.251  1.00  0.00     0.085 A 
ATOM      8  C7  UNK     1      39.727  15.633   0.009  1.00  0.00     0.094 A 
ATOM      9  C8  UNK     1      40.950  16.732  -3.846  1.00  0.00     0.075 A 
ATOM     10  C9  UNK     1      40.771  18.025  -4.338  1.00  0.00     0.071 A 
ATOM     11  C10 UNK     1      40.167  19.000  -3.542  1.00  0.00     0.074 A 
ENDROOT
BRANCH   5  12
ATOM     12  C5  UNK     1      40.584  13.378  -0.489  1.00  0.00    -0.002 A 
ATOM     13  C12 UNK     1      40.182  12.884   0.754  1.00  0.00     0.014 A 
ATOM     14  C14 UNK     1      40.428  11.552   1.092  1.00  0.00     0.001 A 
ATOM     15  C15 UNK     1      41.076  10.711   0.188  1.00  0.00     0.000 A 
ATOM     16  C13 UNK     1      41.479  11.202  -1.055  1.00  0.00     0.001 A 
ATOM     17  C11 UNK     1      41.233  12.533  -1.393  1.00  0.00     0.014 A 
ENDBRANCH   5  12
BRANCH  10  18
ATOM     18  O4  UNK     1      41.183  18.336  -5.598  1.00  0.00    -0.361 OA
ATOM     19  H10 UNK     1      42.155  18.354  -5.616  1.00  0.00     0.217 HD
ENDBRANCH  10  18
BRANCH   7  20
ATOM     20  O2  UNK     1      39.157  19.673  -1.515  1.00  0.00    -0.360 OA
ATOM     21  H9  UNK     1      38.247  19.432  -1.286  1.00  0.00     0.217 HD
ENDBRANCH   7  20
TORSDOF 3
ENDMDL
MODEL 3
REMARK VINA RESULT:      -6.7      1.960      6.194
REMARK  3 active torsions:
REMARK  status: ('A' for Active; 'I' for Inactive)
REMARK    1  A    between atoms: O2_2  and  C6_10 
REMARK    2  A    between atoms: O4_4  and  C9_13 
REMARK    3  A    between atoms: C3_7  and  C5_9 
ROOT
ATOM      1  O1  UNK     1      39.451  15.247  -0.129  1.00  0.00    -0.309 OA
ATOM      2  O3  UNK     1      42.480  14.713  -2.801  1.00  0.00    -0.287 OA
ATOM      3  C1  UNK     1      41.004  13.740  -1.234  1.00  0.00     0.081 A 
ATOM      4  C2  UNK     1      39.968  13.992  -0.336  1.00  0.00     0.095 A 
ATOM      5  C3  UNK     1      39.990  16.308  -0.839  1.00  0.00     0.090 A 
ATOM      6  C4  UNK     1      41.572  14.862  -1.995  1.00  0.00     0.190 A 
ATOM      7  C6  UNK     1      41.490  12.442  -1.404  1.00  0.00     0.085 A 
ATOM      8  C7  UNK     1      40.984  16.192  -1.735  1.00  0.00     0.094 A 
ATOM      9  C8  UNK     1      39.410  12.945   0.397  1.00  0.00     0.075 A 
ATOM     10  C9  UNK     1      39.893  11.647   0.230  1.00  0.00     0.071 A 
ATOM     11  C10 UNK     1      40.930  11.396  -0.669  1.00  0.00     0.074 A 
ENDROOT
BRANCH   5  12
ATOM     12  C5  UNK     1      39.358  17.610  -0.546  1.00  0.00    -0.002 A 
ATOM     13  C12 UNK     1      39.531  18.687  -1.419  1.00  0.00     0.014 A 
ATOM     14  C14 UNK     1      38.935  19.917  -1.142  1.00  0.00     0.001 A 
ATOM     15  C15 UNK     1      38.162  20.075   0.009  1.00  0.00     0.000 A 
ATOM     16  C13 UNK     1      37.987  19.001   0.883  1.00  0.00     0.001 A 
ATOM     17  C11 UNK     1      38.583  17.771   0.606  1.00  0.00     0.014 A 
ENDBRANCH   5  12
BRANCH  10  18
ATOM     18  O4  UNK     1      39.350  10.622   0.944  1.00  0.00    -0.361 OA
ATOM     19  H10 UNK     1      38.420  10.831   1.137  1.00  0.00     0.217 HD
ENDBRANCH  10  18
BRANCH   7  20
ATOM     20  O2  UNK     1      42.500  12.144  -2.269  1.00  0.00    -0.360 OA
ATOM     21  H9  UNK     1      42.571  12.825  -2.955  1.00  0.00     0.217 HD
ENDBRANCH   7  20
TORSDOF 3
ENDMDL
MODEL 4
REMARK VINA RESULT:      -6.7      1.960      6.109
REMARK  3 active torsions:
REMARK  status: ('A' for Active; 'I' for Inactive)
REMARK    1  A    between atoms: O2_2  and  C6_10 
REMARK    2  A    between atoms: O4_4  and  C9_13 
REMARK    3  A    between atoms: C3_7  and  C5_9 
ROOT
ATOM      1  O1  UNK     1      39.451  15.247  -0.130  1.00  0.00    -0.309 OA
ATOM      2  O3  UNK     1      42.480  14.710  -2.801  1.00  0.00    -0.287 OA
ATOM      3  C1  UNK     1      41.002  13.739  -1.234  1.00  0.00     0.081 A 
ATOM      4  C2  UNK     1      39.967  13.992  -0.337  1.00  0.00     0.095 A 
ATOM      5  C3  UNK     1      39.990  16.308  -0.840  1.00  0.00     0.090 A 
ATOM      6  C4  UNK     1      41.571  14.860  -1.996  1.00  0.00     0.190 A 
ATOM      7  C6  UNK     1      41.489  12.440  -1.404  1.00  0.00     0.085 A 
ATOM      8  C7  UNK     1      40.984  16.190  -1.736  1.00  0.00     0.094 A 
ATOM      9  C8  UNK     1      39.408  12.945   0.397  1.00  0.00     0.075 A 
ATOM     10  C9  UNK     1      39.890  11.647   0.231  1.00  0.00     0.071 A 
ATOM     11  C10 UNK     1      40.928  11.395  -0.668  1.00  0.00     0.074 A 
ENDROOT
BRANCH   5  12
ATOM     12  C5  UNK     1      39.359  17.609  -0.548  1.00  0.00    -0.002 A 
ATOM     13  C12 UNK     1      38.585  17.770   0.605  1.00  0.00     0.014 A 
ATOM     14  C14 UNK     1      37.987  19.000   0.882  1.00  0.00     0.001 A 
ATOM     15  C15 UNK     1      38.162  20.073   0.008  1.00  0.00     0.000 A 
ATOM     16  C13 UNK     1      38.934  19.916  -1.143  1.00  0.00     0.001 A 
ATOM     17  C11 UNK     1      39.531  18.687  -1.420  1.00  0.00     0.014 A 
ENDBRANCH   5  12
BRANCH  10  18
ATOM     18  O4  UNK     1      39.346  10.623   0.945  1.00  0.00    -0.361 OA
ATOM     19  H10 UNK     1      39.029   9.942   0.328  1.00  0.00     0.217 HD
ENDBRANCH  10  18
BRANCH   7  20
ATOM     20  O2  UNK     1      42.498  12.141  -2.268  1.00  0.00    -0.360 OA
ATOM     21  H9  UNK     1      42.422  12.671  -3.075  1.00  0.00     0.217 HD
ENDBRANCH   7  20
TORSDOF 3
ENDMDL
MODEL 5
REMARK VINA RESULT:      -5.6      9.955     12.053
REMARK  3 active torsions:
REMARK  status: ('A' for Active; 'I' for Inactive)
REMARK    1  A    between atoms: O2_2  and  C6_10 
REMARK    2  A    between atoms: O4_4  and  C9_13 
REMARK    3  A    between atoms: C3_7  and  C5_9 
ROOT
ATOM      1  O1  UNK     1      46.256  11.550  -7.580  1.00  0.00    -0.309 OA
ATOM      2  O3  UNK     1      48.245   8.162  -8.661  1.00  0.00    -0.287 OA
ATOM      3  C1  UNK     1      46.240   9.412  -8.733  1.00  0.00     0.081 A 
ATOM      4  C2  UNK     1      45.620  10.593  -8.330  1.00  0.00     0.095 A 
ATOM      5  C3  UNK     1      47.571  11.326  -7.201  1.00  0.00     0.090 A 
ATOM      6  C4  UNK     1      47.637   9.174  -8.341  1.00  0.00     0.190 A 
ATOM      7  C6  UNK     1      45.544   8.472  -9.496  1.00  0.00     0.085 A 
ATOM      8  C7  UNK     1      48.277  10.232  -7.532  1.00  0.00     0.094 A 
ATOM      9  C8  UNK     1      44.296  10.843  -8.690  1.00  0.00     0.075 A 
ATOM     10  C9  UNK     1      43.596   9.907  -9.453  1.00  0.00     0.071 A 
ATOM     11  C10 UNK     1      44.219   8.725  -9.855  1.00  0.00     0.074 A 
ENDROOT
BRANCH   5  12
ATOM     12  C5  UNK     1      48.161  12.419  -6.404  1.00  0.00    -0.002 A 
ATOM     13  C12 UNK     1      49.118  13.264  -6.972  1.00  0.00     0.014 A 
ATOM     14  C14 UNK     1      49.677  14.297  -6.219  1.00  0.00     0.001 A 
ATOM     15  C15 UNK     1      49.279  14.489  -4.896  1.00  0.00     0.000 A 
ATOM     16  C13 UNK     1      48.323  13.648  -4.326  1.00  0.00     0.001 A 
ATOM     17  C11 UNK     1      47.765  12.615  -5.079  1.00  0.00     0.014 A 
ENDBRANCH   5  12
BRANCH  10  18
ATOM     18  O4  UNK     1      42.303  10.149  -9.807  1.00  0.00    -0.361 OA
ATOM     19  H10 UNK     1      42.114  11.094  -9.682  1.00  0.00     0.217 HD
ENDBRANCH  10  18
BRANCH   7  20
ATOM     20  O2  UNK     1      46.105   7.304  -9.915  1.00  0.00    -0.360 OA
ATOM     21  H9  UNK     1      46.240   6.705  -9.165  1.00  0.00     0.217 HD
ENDBRANCH   7  20
TORSDOF 3
ENDMDL
MODEL 6
REMARK VINA RESULT:      -5.6      9.954     12.006
REMARK  3 active torsions:
REMARK  status: ('A' for Active; 'I' for Inactive)
REMARK    1  A    between atoms: O2_2  and  C6_10 
REMARK    2  A    between atoms: O4_4  and  C9_13 
REMARK    3  A    between atoms: C3_7  and  C5_9 
ROOT
ATOM      1  O1  UNK     1      46.257  11.550  -7.581  1.00  0.00    -0.309 OA
ATOM      2  O3  UNK     1      48.246   8.163  -8.663  1.00  0.00    -0.287 OA
ATOM      3  C1  UNK     1      46.241   9.412  -8.734  1.00  0.00     0.081 A 
ATOM      4  C2  UNK     1      45.620  10.593  -8.331  1.00  0.00     0.095 A 
ATOM      5  C3  UNK     1      47.571  11.327  -7.203  1.00  0.00     0.090 A 
ATOM      6  C4  UNK     1      47.638   9.175  -8.342  1.00  0.00     0.190 A 
ATOM      7  C6  UNK     1      45.544   8.472  -9.497  1.00  0.00     0.085 A 
ATOM      8  C7  UNK     1      48.278  10.234  -7.534  1.00  0.00     0.094 A 
ATOM      9  C8  UNK     1      44.296  10.843  -8.690  1.00  0.00     0.075 A 
ATOM     10  C9  UNK     1      43.596   9.907  -9.452  1.00  0.00     0.071 A 
ATOM     11  C10 UNK     1      44.219   8.725  -9.855  1.00  0.00     0.074 A 
ENDROOT
BRANCH   5  12
ATOM     12  C5  UNK     1      48.161  12.420  -6.406  1.00  0.00    -0.002 A 
ATOM     13  C12 UNK     1      47.764  12.615  -5.080  1.00  0.00     0.014 A 
ATOM     14  C14 UNK     1      48.321  13.649  -4.326  1.00  0.00     0.001 A 
ATOM     15  C15 UNK     1      49.276  14.490  -4.895  1.00  0.00     0.000 A 
ATOM     16  C13 UNK     1      49.675  14.299  -6.218  1.00  0.00     0.001 A 
ATOM     17  C11 UNK     1      49.119  13.266  -6.972  1.00  0.00     0.014 A 
ENDBRANCH   5  12
BRANCH  10  18
ATOM     18  O4  UNK     1      42.303  10.148  -9.806  1.00  0.00    -0.361 OA
ATOM     19  H10 UNK     1      41.940  10.835  -9.222  1.00  0.00     0.217 HD
ENDBRANCH  10  18
BRANCH   7  20
ATOM     20  O2  UNK     1      46.106   7.304  -9.915  1.00  0.00    -0.360 OA
ATOM     21  H9  UNK     1      45.826   6.570  -9.348  1.00  0.00     0.217 HD
ENDBRANCH   7  20
TORSDOF 3
ENDMDL
MODEL 7
REMARK VINA RESULT:      -5.4     11.177     13.463
REMARK  3 active torsions:
REMARK  status: ('A' for Active; 'I' for Inactive)
REMARK    1  A    between atoms: O2_2  and  C6_10 
REMARK    2  A    between atoms: O4_4  and  C9_13 
REMARK    3  A    between atoms: C3_7  and  C5_9 
ROOT
ATOM      1  O1  UNK     1      40.351  14.372 -13.521  1.00  0.00    -0.309 OA
ATOM      2  O3  UNK     1      39.993  10.634 -11.942  1.00  0.00    -0.287 OA
ATOM      3  C1  UNK     1      39.239  12.213 -13.530  1.00  0.00     0.081 A 
ATOM      4  C2  UNK     1      39.414  13.504 -14.024  1.00  0.00     0.095 A 
ATOM      5  C3  UNK     1      41.150  13.947 -12.471  1.00  0.00     0.090 A 
ATOM      6  C4  UNK     1      40.091  11.754 -12.423  1.00  0.00     0.190 A 
ATOM      7  C6  UNK     1      38.270  11.371 -14.081  1.00  0.00     0.085 A 
ATOM      8  C7  UNK     1      41.080  12.727 -11.915  1.00  0.00     0.094 A 
ATOM      9  C8  UNK     1      38.621  13.963 -15.075  1.00  0.00     0.075 A 
ATOM     10  C9  UNK     1      37.651  13.126 -15.629  1.00  0.00     0.071 A 
ATOM     11  C10 UNK     1      37.477  11.833 -15.133  1.00  0.00     0.074 A 
ENDROOT
BRANCH   5  12
ATOM     12  C5  UNK     1      42.125  14.955 -12.012  1.00  0.00    -0.002 A 
ATOM     13  C12 UNK     1      42.311  15.180 -10.645  1.00  0.00     0.014 A 
ATOM     14  C14 UNK     1      43.232  16.133 -10.210  1.00  0.00     0.001 A 
ATOM     15  C15 UNK     1      43.971  16.864 -11.140  1.00  0.00     0.000 A 
ATOM     16  C13 UNK     1      43.788  16.642 -12.505  1.00  0.00     0.001 A 
ATOM     17  C11 UNK     1      42.867  15.690 -12.940  1.00  0.00     0.014 A 
ENDBRANCH   5  12
BRANCH  10  18
ATOM     18  O4  UNK     1      36.876  13.570 -16.656  1.00  0.00    -0.361 OA
ATOM     19  H10 UNK     1      36.518  12.804 -17.135  1.00  0.00     0.217 HD
ENDBRANCH  10  18
BRANCH   7  20
ATOM     20  O2  UNK     1      38.060  10.102 -13.634  1.00  0.00    -0.360 OA
ATOM     21  H9  UNK     1      37.273  10.067 -13.069  1.00  0.00     0.217 HD
ENDBRANCH   7  20
TORSDOF 3
ENDMDL
MODEL 8
REMARK VINA RESULT:      -5.4      9.759     11.397
REMARK  3 active torsions:
REMARK  status: ('A' for Active; 'I' for Inactive)
REMARK    1  A    between atoms: O2_2  and  C6_10 
REMARK    2  A    between atoms: O4_4  and  C9_13 
REMARK    3  A    between atoms: C3_7  and  C5_9 
ROOT
ATOM      1  O1  UNK     1      47.193  12.031  -7.032  1.00  0.00    -0.309 OA
ATOM      2  O3  UNK     1      50.563  12.874  -9.161  1.00  0.00    -0.287 OA
ATOM      3  C1  UNK     1      49.321  13.195  -7.176  1.00  0.00     0.081 A 
ATOM      4  C2  UNK     1      48.147  12.865  -6.502  1.00  0.00     0.095 A 
ATOM      5  C3  UNK     1      47.406  11.503  -8.296  1.00  0.00     0.090 A 
ATOM      6  C4  UNK     1      49.555  12.629  -8.513  1.00  0.00     0.190 A 
ATOM      7  C6  UNK     1      50.257  14.048  -6.589  1.00  0.00     0.085 A 
ATOM      8  C7  UNK     1      48.498  11.741  -9.040  1.00  0.00     0.094 A 
ATOM      9  C8  UNK     1      47.902  13.386  -5.232  1.00  0.00     0.075 A 
ATOM     10  C9  UNK     1      48.834  14.239  -4.641  1.00  0.00     0.071 A 
ATOM     11  C10 UNK     1      50.010  14.568  -5.318  1.00  0.00     0.074 A 
ENDROOT
BRANCH   5  12
ATOM     12  C5  UNK     1      46.323  10.617  -8.766  1.00  0.00    -0.002 A 
ATOM     13  C12 UNK     1      46.630   9.393  -9.368  1.00  0.00     0.014 A 
ATOM     14  C14 UNK     1      45.607   8.555  -9.814  1.00  0.00     0.001 A 
ATOM     15  C15 UNK     1      44.275   8.937  -9.658  1.00  0.00     0.000 A 
ATOM     16  C13 UNK     1      43.965  10.158  -9.057  1.00  0.00     0.001 A 
ATOM     17  C11 UNK     1      44.987  10.996  -8.612  1.00  0.00     0.014 A 
ENDBRANCH   5  12
BRANCH  10  18
ATOM     18  O4  UNK     1      48.598  14.749  -3.400  1.00  0.00    -0.361 OA
ATOM     19  H10 UNK     1      49.389  15.230  -3.102  1.00  0.00     0.217 HD
ENDBRANCH  10  18
BRANCH   7  20
ATOM     20  O2  UNK     1      51.419  14.400  -7.206  1.00  0.00    -0.360 OA
ATOM     21  H9  UNK     1      51.739  13.677  -7.766  1.00  0.00     0.217 HD
ENDBRANCH   7  20
TORSDOF 3
ENDMDL
MODEL 9
REMARK VINA RESULT:      -5.2     10.346     12.361
REMARK  3 active torsions:
REMARK  status: ('A' for Active; 'I' for Inactive)
REMARK    1  A    between atoms: O2_2  and  C6_10 
REMARK    2  A    between atoms: O4_4  and  C9_13 
REMARK    3  A    between atoms: C3_7  and  C5_9 
ROOT
ATOM      1  O1  UNK     1      48.028  11.427  -5.901  1.00  0.00    -0.309 OA
ATOM      2  O3  UNK     1      51.039   8.860  -6.872  1.00  0.00    -0.287 OA
ATOM      3  C1  UNK     1      50.037  10.236  -5.233  1.00  0.00     0.081 A 
ATOM      4  C2  UNK     1      48.981  11.105  -4.967  1.00  0.00     0.095 A 
ATOM      5  C3  UNK     1      48.127  10.867  -7.165  1.00  0.00     0.090 A 
ATOM      6  C4  UNK     1      50.140   9.633  -6.570  1.00  0.00     0.190 A 
ATOM      7  C6  UNK     1      50.979   9.944  -4.244  1.00  0.00     0.085 A 
ATOM      8  C7  UNK     1      49.093  10.013  -7.540  1.00  0.00     0.094 A 
ATOM      9  C8  UNK     1      48.859  11.689  -3.706  1.00  0.00     0.075 A 
ATOM     10  C9  UNK     1      49.797  11.401  -2.715  1.00  0.00     0.071 A 
ATOM     11  C10 UNK     1      50.854  10.529  -2.983  1.00  0.00     0.074 A 
ENDROOT
BRANCH   5  12
ATOM     12  C5  UNK     1      47.049  11.274  -8.088  1.00  0.00    -0.002 A 
ATOM     13  C12 UNK     1      47.333  11.512  -9.436  1.00  0.00     0.014 A 
ATOM     14  C14 UNK     1      46.314  11.897 -10.309  1.00  0.00     0.001 A 
ATOM     15  C15 UNK     1      45.010  12.045  -9.838  1.00  0.00     0.000 A 
ATOM     16  C13 UNK     1      44.724  11.809  -8.493  1.00  0.00     0.001 A 
ATOM     17  C11 UNK     1      45.742  11.424  -7.620  1.00  0.00     0.014 A 
ENDBRANCH   5  12
BRANCH  10  18
ATOM     18  O4  UNK     1      49.680  11.968  -1.482  1.00  0.00    -0.361 OA
ATOM     19  H10 UNK     1      48.953  12.613  -1.500  1.00  0.00     0.217 HD
ENDBRANCH  10  18
BRANCH   7  20
ATOM     20  O2  UNK     1      52.027   9.101  -4.454  1.00  0.00    -0.360 OA
ATOM     21  H9  UNK     1      52.198   9.001  -5.403  1.00  0.00     0.217 HD
ENDBRANCH   7  20
TORSDOF 3
ENDMDL
MODEL 10
REMARK VINA RESULT:      -5.2     10.288     12.052
REMARK  3 active torsions:
REMARK  status: ('A' for Active; 'I' for Inactive)
REMARK    1  A    between atoms: O2_2  and  C6_10 
REMARK    2  A    between atoms: O4_4  and  C9_13 
REMARK    3  A    between atoms: C3_7  and  C5_9 
ROOT
ATOM      1  O1  UNK     1      48.560   9.986  -6.586  1.00  0.00    -0.309 OA
ATOM      2  O3  UNK     1      47.752  13.922  -5.910  1.00  0.00    -0.287 OA
ATOM      3  C1  UNK     1      48.707  11.912  -5.114  1.00  0.00     0.081 A 
ATOM      4  C2  UNK     1      48.952  10.573  -5.409  1.00  0.00     0.095 A 
ATOM      5  C3  UNK     1      47.884  10.760  -7.517  1.00  0.00     0.090 A 
ATOM      6  C4  UNK     1      47.999  12.739  -6.102  1.00  0.00     0.190 A 
ATOM      7  C6  UNK     1      49.130  12.457  -3.899  1.00  0.00     0.085 A 
ATOM      8  C7  UNK     1      47.595  12.061  -7.351  1.00  0.00     0.094 A 
ATOM      9  C8  UNK     1      49.624   9.767  -4.490  1.00  0.00     0.075 A 
ATOM     10  C9  UNK     1      50.048  10.306  -3.275  1.00  0.00     0.071 A 
ATOM     11  C10 UNK     1      49.802  11.649  -2.981  1.00  0.00     0.074 A 
ENDROOT
BRANCH   5  12
ATOM     12  C5  UNK     1      47.514  10.034  -8.747  1.00  0.00    -0.002 A 
ATOM     13  C12 UNK     1      47.473  10.705  -9.972  1.00  0.00     0.014 A 
ATOM     14  C14 UNK     1      47.123  10.019 -11.136  1.00  0.00     0.001 A 
ATOM     15  C15 UNK     1      46.814   8.660 -11.078  1.00  0.00     0.000 A 
ATOM     16  C13 UNK     1      46.854   7.987  -9.857  1.00  0.00     0.001 A 
ATOM     17  C11 UNK     1      47.204   8.672  -8.694  1.00  0.00     0.014 A 
ENDBRANCH   5  12
BRANCH  10  18
ATOM     18  O4  UNK     1      50.706   9.523  -2.376  1.00  0.00    -0.361 OA
ATOM     19  H10 UNK     1      50.439   9.782  -1.478  1.00  0.00     0.217 HD
ENDBRANCH  10  18
BRANCH   7  20
ATOM     20  O2  UNK     1      48.915  13.759  -3.564  1.00  0.00    -0.360 OA
ATOM     21  H9  UNK     1      48.961  13.874  -2.602  1.00  0.00     0.217 HD
ENDBRANCH   7  20
TORSDOF 3
ENDMDL
MODEL 11
REMARK VINA RESULT:      -5.2     10.532     12.972
REMARK  3 active torsions:
REMARK  status: ('A' for Active; 'I' for Inactive)
REMARK    1  A    between atoms: O2_2  and  C6_10 
REMARK    2  A    between atoms: O4_4  and  C9_13 
REMARK    3  A    between atoms: C3_7  and  C5_9 
ROOT
ATOM      1  O1  UNK     1      50.325  11.273  -2.253  1.00  0.00    -0.309 OA
ATOM      2  O3  UNK     1      52.631   8.795  -4.521  1.00  0.00    -0.287 OA
ATOM      3  C1  UNK     1      50.641  10.056  -4.332  1.00  0.00     0.081 A 
ATOM      4  C2  UNK     1      49.903  10.901  -3.505  1.00  0.00     0.095 A 
ATOM      5  C3  UNK     1      51.535  10.780  -1.791  1.00  0.00     0.090 A 
ATOM      6  C4  UNK     1      51.930   9.538  -3.849  1.00  0.00     0.190 A 
ATOM      7  C6  UNK     1      50.163   9.711  -5.598  1.00  0.00     0.085 A 
ATOM      8  C7  UNK     1      52.338   9.965  -2.494  1.00  0.00     0.094 A 
ATOM      9  C8  UNK     1      48.679  11.408  -3.941  1.00  0.00     0.075 A 
ATOM     10  C9  UNK     1      48.196  11.065  -5.205  1.00  0.00     0.071 A 
ATOM     11  C10 UNK     1      48.938  10.219  -6.031  1.00  0.00     0.074 A 
ENDROOT
BRANCH   5  12
ATOM     12  C5  UNK     1      51.896  11.247  -0.438  1.00  0.00    -0.002 A 
ATOM     13  C12 UNK     1      53.229  11.524  -0.124  1.00  0.00     0.014 A 
ATOM     14  C14 UNK     1      53.571  11.965   1.156  1.00  0.00     0.001 A 
ATOM     15  C15 UNK     1      52.581  12.131   2.124  1.00  0.00     0.000 A 
ATOM     16  C13 UNK     1      51.249  11.855   1.814  1.00  0.00     0.001 A 
ATOM     17  C11 UNK     1      50.907  11.414   0.535  1.00  0.00     0.014 A 
ENDBRANCH   5  12
BRANCH  10  18
ATOM     18  O4  UNK     1      47.002  11.559  -5.633  1.00  0.00    -0.361 OA
ATOM     19  H10 UNK     1      46.878  11.318  -6.567  1.00  0.00     0.217 HD
ENDBRANCH  10  18
BRANCH   7  20
ATOM     20  O2  UNK     1      50.847   8.891  -6.443  1.00  0.00    -0.360 OA
ATOM     21  H9  UNK     1      51.460   8.327  -5.947  1.00  0.00     0.217 HD
ENDBRANCH   7  20
TORSDOF 3
ENDMDL
MODEL 12
REMARK VINA RESULT:      -5.2     10.492     12.902
REMARK  3 active torsions:
REMARK  status: ('A' for Active; 'I' for Inactive)
REMARK    1  A    between atoms: O2_2  and  C6_10 
REMARK    2  A    between atoms: O4_4  and  C9_13 
REMARK    3  A    between atoms: C3_7  and  C5_9 
ROOT
ATOM      1  O1  UNK     1      50.985  10.150  -3.729  1.00  0.00    -0.309 OA
ATOM      2  O3  UNK     1      47.433  11.906  -4.679  1.00  0.00    -0.287 OA
ATOM      3  C1  UNK     1      49.174  10.442  -5.321  1.00  0.00     0.081 A 
ATOM      4  C2  UNK     1      50.387   9.876  -4.934  1.00  0.00     0.095 A 
ATOM      5  C3  UNK     1      50.357  11.034  -2.866  1.00  0.00     0.090 A 
ATOM      6  C4  UNK     1      48.500  11.374  -4.405  1.00  0.00     0.190 A 
ATOM      7  C6  UNK     1      48.611  10.127  -6.560  1.00  0.00     0.085 A 
ATOM      8  C7  UNK     1      49.185  11.638  -3.123  1.00  0.00     0.094 A 
ATOM      9  C8  UNK     1      51.045   8.988  -5.784  1.00  0.00     0.075 A 
ATOM     10  C9  UNK     1      50.486   8.670  -7.023  1.00  0.00     0.071 A 
ATOM     11  C10 UNK     1      49.271   9.239  -7.409  1.00  0.00     0.074 A 
ENDROOT
BRANCH   5  12
ATOM     12  C5  UNK     1      51.081  11.252  -1.598  1.00  0.00    -0.002 A 
ATOM     13  C12 UNK     1      50.375  11.543  -0.428  1.00  0.00     0.014 A 
ATOM     14  C14 UNK     1      51.059  11.750   0.771  1.00  0.00     0.001 A 
ATOM     15  C15 UNK     1      52.451  11.665   0.803  1.00  0.00     0.000 A 
ATOM     16  C13 UNK     1      53.159  11.375  -0.364  1.00  0.00     0.001 A 
ATOM     17  C11 UNK     1      52.475  11.168  -1.561  1.00  0.00     0.014 A 
ENDBRANCH   5  12
BRANCH  10  18
ATOM     18  O4  UNK     1      51.127   7.803  -7.855  1.00  0.00    -0.361 OA
ATOM     19  H10 UNK     1      50.704   6.930  -7.785  1.00  0.00     0.217 HD
ENDBRANCH  10  18
BRANCH   7  20
ATOM     20  O2  UNK     1      47.428  10.654  -6.984  1.00  0.00    -0.360 OA
ATOM     21  H9  UNK     1      46.703  10.031  -6.824  1.00  0.00     0.217 HD
ENDBRANCH   7  20
TORSDOF 3
ENDMDL
MODEL 13
REMARK VINA RESULT:      -5.2     10.403     13.140
REMARK  3 active torsions:
REMARK  status: ('A' for Active; 'I' for Inactive)
REMARK    1  A    between atoms: O2_2  and  C6_10 
REMARK    2  A    between atoms: O4_4  and  C9_13 
REMARK    3  A    between atoms: C3_7  and  C5_9 
ROOT
ATOM      1  O1  UNK     1      43.323  12.032 -11.731  1.00  0.00    -0.309 OA
ATOM      2  O3  UNK     1      44.847  10.180  -8.438  1.00  0.00    -0.287 OA
ATOM      3  C1  UNK     1      43.744   9.971 -10.518  1.00  0.00     0.081 A 
ATOM      4  C2  UNK     1      43.244  10.667 -11.617  1.00  0.00     0.095 A 
ATOM      5  C3  UNK     1      43.918  12.748 -10.705  1.00  0.00     0.090 A 
ATOM      6  C4  UNK     1      44.385  10.726  -9.431  1.00  0.00     0.190 A 
ATOM      7  C6  UNK     1      43.637   8.580 -10.454  1.00  0.00     0.085 A 
ATOM      8  C7  UNK     1      44.441  12.192  -9.600  1.00  0.00     0.094 A 
ATOM      9  C8  UNK     1      42.634   9.974 -12.662  1.00  0.00     0.075 A 
ATOM     10  C9  UNK     1      42.524   8.585 -12.603  1.00  0.00     0.071 A 
ATOM     11  C10 UNK     1      43.025   7.889 -11.501  1.00  0.00     0.074 A 
ENDROOT
BRANCH   5  12
ATOM     12  C5  UNK     1      43.955  14.206 -10.932  1.00  0.00    -0.002 A 
ATOM     13  C12 UNK     1      44.693  14.731 -11.997  1.00  0.00     0.014 A 
ATOM     14  C14 UNK     1      44.729  16.110 -12.212  1.00  0.00     0.001 A 
ATOM     15  C15 UNK     1      44.028  16.967 -11.365  1.00  0.00     0.000 A 
ATOM     16  C13 UNK     1      43.290  16.446 -10.301  1.00  0.00     0.001 A 
ATOM     17  C11 UNK     1      43.254  15.068 -10.086  1.00  0.00     0.014 A 
ENDBRANCH   5  12
BRANCH  10  18
ATOM     18  O4  UNK     1      41.930   7.905 -13.623  1.00  0.00    -0.361 OA
ATOM     19  H10 UNK     1      41.432   7.156 -13.254  1.00  0.00     0.217 HD
ENDBRANCH  10  18
BRANCH   7  20
ATOM     20  O2  UNK     1      44.109   7.854  -9.403  1.00  0.00    -0.360 OA
ATOM     21  H9  UNK     1      44.275   6.937  -9.670  1.00  0.00     0.217 HD
ENDBRANCH   7  20
TORSDOF 3
ENDMDL
MODEL 14
REMARK VINA RESULT:      -5.1     10.700     12.134
REMARK  3 active torsions:
REMARK  status: ('A' for Active; 'I' for Inactive)
REMARK    1  A    between atoms: O2_2  and  C6_10 
REMARK    2  A    between atoms: O4_4  and  C9_13 
REMARK    3  A    between atoms: C3_7  and  C5_9 
ROOT
ATOM      1  O1  UNK     1      48.410  10.570  -5.958  1.00  0.00    -0.309 OA
ATOM      2  O3  UNK     1      50.478  14.023  -6.590  1.00  0.00    -0.287 OA
ATOM      3  C1  UNK     1      50.224  12.051  -5.313  1.00  0.00     0.081 A 
ATOM      4  C2  UNK     1      49.475  10.886  -5.153  1.00  0.00     0.095 A 
ATOM      5  C3  UNK     1      48.061  11.452  -6.969  1.00  0.00     0.090 A 
ATOM      6  C4  UNK     1      49.863  12.984  -6.390  1.00  0.00     0.190 A 
ATOM      7  C6  UNK     1      51.299  12.322  -4.463  1.00  0.00     0.085 A 
ATOM      8  C7  UNK     1      48.708  12.600  -7.227  1.00  0.00     0.094 A 
ATOM      9  C8  UNK     1      49.798   9.983  -4.140  1.00  0.00     0.075 A 
ATOM     10  C9  UNK     1      50.871  10.250  -3.289  1.00  0.00     0.071 A 
ATOM     11  C10 UNK     1      51.620  11.416  -3.451  1.00  0.00     0.074 A 
ENDROOT
BRANCH   5  12
ATOM     12  C5  UNK     1      46.907  11.012  -7.778  1.00  0.00    -0.002 A 
ATOM     13  C12 UNK     1      46.964   9.808  -8.485  1.00  0.00     0.014 A 
ATOM     14  C14 UNK     1      45.874   9.392  -9.250  1.00  0.00     0.001 A 
ATOM     15  C15 UNK     1      44.723  10.178  -9.310  1.00  0.00     0.000 A 
ATOM     16  C13 UNK     1      44.663  11.381  -8.606  1.00  0.00     0.001 A 
ATOM     17  C11 UNK     1      45.753  11.797  -7.841  1.00  0.00     0.014 A 
ENDBRANCH   5  12
BRANCH  10  18
ATOM     18  O4  UNK     1      51.189   9.369  -2.300  1.00  0.00    -0.361 OA
ATOM     19  H10 UNK     1      50.387   8.887  -2.037  1.00  0.00     0.217 HD
ENDBRANCH  10  18
BRANCH   7  20
ATOM     20  O2  UNK     1      52.061  13.444  -4.579  1.00  0.00    -0.360 OA
ATOM     21  H9  UNK     1      52.482  13.481  -5.452  1.00  0.00     0.217 HD
ENDBRANCH   7  20
TORSDOF 3
ENDMDL
MODEL 15
REMARK VINA RESULT:      -5.1     11.855     14.334
REMARK  3 active torsions:
REMARK  status: ('A' for Active; 'I' for Inactive)
REMARK    1  A    between atoms: O2_2  and  C6_10 
REMARK    2  A    between atoms: O4_4  and  C9_13 
REMARK    3  A    between atoms: C3_7  and  C5_9 
ROOT
ATOM      1  O1  UNK     1      52.072   8.903  -4.007  1.00  0.00    -0.309 OA
ATOM      2  O3  UNK     1      51.961  11.047  -0.544  1.00  0.00    -0.287 OA
ATOM      3  C1  UNK     1      50.942  10.543  -2.616  1.00  0.00     0.081 A 
ATOM      4  C2  UNK     1      51.040   9.779  -3.777  1.00  0.00     0.095 A 
ATOM      5  C3  UNK     1      53.062   8.781  -3.044  1.00  0.00     0.090 A 
ATOM      6  C4  UNK     1      51.985  10.410  -1.588  1.00  0.00     0.190 A 
ATOM      7  C6  UNK     1      49.869  11.419  -2.435  1.00  0.00     0.085 A 
ATOM      8  C7  UNK     1      53.075   9.457  -1.884  1.00  0.00     0.094 A 
ATOM      9  C8  UNK     1      50.063   9.885  -4.767  1.00  0.00     0.075 A 
ATOM     10  C9  UNK     1      48.990  10.759  -4.590  1.00  0.00     0.071 A 
ATOM     11  C10 UNK     1      48.893  11.523  -3.426  1.00  0.00     0.074 A 
ENDROOT
BRANCH   5  12
ATOM     12  C5  UNK     1      54.118   7.809  -3.388  1.00  0.00    -0.002 A 
ATOM     13  C12 UNK     1      54.577   6.903  -2.429  1.00  0.00     0.014 A 
ATOM     14  C14 UNK     1      55.576   5.984  -2.754  1.00  0.00     0.001 A 
ATOM     15  C15 UNK     1      56.119   5.969  -4.039  1.00  0.00     0.000 A 
ATOM     16  C13 UNK     1      55.663   6.873  -4.999  1.00  0.00     0.001 A 
ATOM     17  C11 UNK     1      54.664   7.791  -4.674  1.00  0.00     0.014 A 
ENDBRANCH   5  12
BRANCH  10  18
ATOM     18  O4  UNK     1      48.033  10.864  -5.554  1.00  0.00    -0.361 OA
ATOM     19  H10 UNK     1      48.238  10.239  -6.271  1.00  0.00     0.217 HD
ENDBRANCH  10  18
BRANCH   7  20
ATOM     20  O2  UNK     1      49.728  12.186  -1.318  1.00  0.00    -0.360 OA
ATOM     21  H9  UNK     1      48.858  12.042  -0.915  1.00  0.00     0.217 HD
ENDBRANCH   7  20
TORSDOF 3
ENDMDL
MODEL 16
REMARK VINA RESULT:      -5.0     10.253     12.635
REMARK  3 active torsions:
REMARK  status: ('A' for Active; 'I' for Inactive)
REMARK    1  A    between atoms: O2_2  and  C6_10 
REMARK    2  A    between atoms: O4_4  and  C9_13 
REMARK    3  A    between atoms: C3_7  and  C5_9 
ROOT
ATOM      1  O1  UNK     1      49.750   9.061  -5.689  1.00  0.00    -0.309 OA
ATOM      2  O3  UNK     1      47.936  11.830  -8.062  1.00  0.00    -0.287 OA
ATOM      3  C1  UNK     1      48.755  11.264  -5.919  1.00  0.00     0.081 A 
ATOM      4  C2  UNK     1      49.380  10.274  -5.164  1.00  0.00     0.095 A 
ATOM      5  C3  UNK     1      49.484   8.810  -7.026  1.00  0.00     0.090 A 
ATOM      6  C4  UNK     1      48.478  11.006  -7.340  1.00  0.00     0.190 A 
ATOM      7  C6  UNK     1      48.400  12.482  -5.333  1.00  0.00     0.085 A 
ATOM      8  C7  UNK     1      48.894   9.685  -7.856  1.00  0.00     0.094 A 
ATOM      9  C8  UNK     1      49.655  10.495  -3.815  1.00  0.00     0.075 A 
ATOM     10  C9  UNK     1      49.302  11.709  -3.225  1.00  0.00     0.071 A 
ATOM     11  C10 UNK     1      48.677  12.700  -3.983  1.00  0.00     0.074 A 
ENDROOT
BRANCH   5  12
ATOM     12  C5  UNK     1      49.928   7.480  -7.487  1.00  0.00    -0.002 A 
ATOM     13  C12 UNK     1      48.995   6.460  -7.690  1.00  0.00     0.014 A 
ATOM     14  C14 UNK     1      49.415   5.202  -8.126  1.00  0.00     0.001 A 
ATOM     15  C15 UNK     1      50.769   4.962  -8.362  1.00  0.00     0.000 A 
ATOM     16  C13 UNK     1      51.703   5.979  -8.161  1.00  0.00     0.001 A 
ATOM     17  C11 UNK     1      51.283   7.235  -7.725  1.00  0.00     0.014 A 
ENDBRANCH   5  12
BRANCH  10  18
ATOM     18  O4  UNK     1      49.571  11.928  -1.908  1.00  0.00    -0.361 OA
ATOM     19  H10 UNK     1      50.387  11.457  -1.670  1.00  0.00     0.217 HD
ENDBRANCH  10  18
BRANCH   7  20
ATOM     20  O2  UNK     1      47.789  13.481  -6.028  1.00  0.00    -0.360 OA
ATOM     21  H9  UNK     1      47.227  14.008  -5.440  1.00  0.00     0.217 HD
ENDBRANCH   7  20
TORSDOF 3
ENDMDL
MODEL 17
REMARK VINA RESULT:      -5.0     11.177     13.176
REMARK  3 active torsions:
REMARK  status: ('A' for Active; 'I' for Inactive)
REMARK    1  A    between atoms: O2_2  and  C6_10 
REMARK    2  A    between atoms: O4_4  and  C9_13 
REMARK    3  A    between atoms: C3_7  and  C5_9 
ROOT
ATOM      1  O1  UNK     1      50.521  14.148  -7.184  1.00  0.00    -0.309 OA
ATOM      2  O3  UNK     1      49.382  10.249  -6.873  1.00  0.00    -0.287 OA
ATOM      3  C1  UNK     1      49.217  12.452  -6.035  1.00  0.00     0.081 A 
ATOM      4  C2  UNK     1      49.646  13.768  -6.197  1.00  0.00     0.095 A 
ATOM      5  C3  UNK     1      51.003  13.179  -8.050  1.00  0.00     0.090 A 
ATOM      6  C4  UNK     1      49.719  11.422  -6.956  1.00  0.00     0.190 A 
ATOM      7  C6  UNK     1      48.324  12.121  -5.012  1.00  0.00     0.085 A 
ATOM      8  C7  UNK     1      50.660  11.882  -7.998  1.00  0.00     0.094 A 
ATOM      9  C8  UNK     1      49.184  14.764  -5.338  1.00  0.00     0.075 A 
ATOM     10  C9  UNK     1      48.292  14.438  -4.315  1.00  0.00     0.071 A 
ATOM     11  C10 UNK     1      47.863  13.120  -4.153  1.00  0.00     0.074 A 
ENDROOT
BRANCH   5  12
ATOM     12  C5  UNK     1      51.931  13.696  -9.074  1.00  0.00    -0.002 A 
ATOM     13  C12 UNK     1      52.673  14.855  -8.828  1.00  0.00     0.014 A 
ATOM     14  C14 UNK     1      53.549  15.345  -9.797  1.00  0.00     0.001 A 
ATOM     15  C15 UNK     1      53.688  14.678 -11.014  1.00  0.00     0.000 A 
ATOM     16  C13 UNK     1      52.949  13.521 -11.263  1.00  0.00     0.001 A 
ATOM     17  C11 UNK     1      52.073  13.031 -10.295  1.00  0.00     0.014 A 
ENDBRANCH   5  12
BRANCH  10  18
ATOM     18  O4  UNK     1      47.838  15.409  -3.474  1.00  0.00    -0.361 OA
ATOM     19  H10 UNK     1      48.402  16.195  -3.567  1.00  0.00     0.217 HD
ENDBRANCH  10  18
BRANCH   7  20
ATOM     20  O2  UNK     1      47.875  10.851  -4.812  1.00  0.00    -0.360 OA
ATOM     21  H9  UNK     1      47.421  10.523  -5.603  1.00  0.00     0.217 HD
ENDBRANCH   7  20
TORSDOF 3
ENDMDL
MODEL 18
REMARK VINA RESULT:      -5.0     11.084     12.926
REMARK  3 active torsions:
REMARK  status: ('A' for Active; 'I' for Inactive)
REMARK    1  A    between atoms: O2_2  and  C6_10 
REMARK    2  A    between atoms: O4_4  and  C9_13 
REMARK    3  A    between atoms: C3_7  and  C5_9 
ROOT
ATOM      1  O1  UNK     1      44.641  12.829 -10.765  1.00  0.00    -0.309 OA
ATOM      2  O3  UNK     1      41.259  11.414 -12.542  1.00  0.00    -0.287 OA
ATOM      3  C1  UNK     1      43.033  11.028 -11.029  1.00  0.00     0.081 A 
ATOM      4  C2  UNK     1      44.181  11.573 -10.457  1.00  0.00     0.095 A 
ATOM      5  C3  UNK     1      43.936  13.584 -11.689  1.00  0.00     0.090 A 
ATOM      6  C4  UNK     1      42.276  11.828 -12.003  1.00  0.00     0.190 A 
ATOM      7  C6  UNK     1      42.611   9.744 -10.678  1.00  0.00     0.085 A 
ATOM      8  C7  UNK     1      42.814  13.172 -12.302  1.00  0.00     0.094 A 
ATOM      9  C8  UNK     1      44.916  10.836  -9.529  1.00  0.00     0.075 A 
ATOM     10  C9  UNK     1      44.498   9.552  -9.176  1.00  0.00     0.071 A 
ATOM     11  C10 UNK     1      43.348   9.008  -9.749  1.00  0.00     0.074 A 
ENDROOT
BRANCH   5  12
ATOM     12  C5  UNK     1      44.512  14.919 -11.941  1.00  0.00    -0.002 A 
ATOM     13  C12 UNK     1      45.789  15.038 -12.496  1.00  0.00     0.014 A 
ATOM     14  C14 UNK     1      46.336  16.300 -12.734  1.00  0.00     0.001 A 
ATOM     15  C15 UNK     1      45.606  17.446 -12.418  1.00  0.00     0.000 A 
ATOM     16  C13 UNK     1      44.331  17.331 -11.864  1.00  0.00     0.001 A 
ATOM     17  C11 UNK     1      43.785  16.070 -11.627  1.00  0.00     0.014 A 
ENDBRANCH   5  12
BRANCH  10  18
ATOM     18  O4  UNK     1      45.213   8.830  -8.269  1.00  0.00    -0.361 OA
ATOM     19  H10 UNK     1      44.898   7.911  -8.280  1.00  0.00     0.217 HD
ENDBRANCH  10  18
BRANCH   7  20
ATOM     20  O2  UNK     1      41.496   9.167 -11.208  1.00  0.00    -0.360 OA
ATOM     21  H9  UNK     1      40.903   8.866 -10.503  1.00  0.00     0.217 HD
ENDBRANCH   7  20
TORSDOF 3
ENDMDL
MODEL 19
REMARK VINA RESULT:      -5.0      9.850     12.179
REMARK  3 active torsions:
REMARK  status: ('A' for Active; 'I' for Inactive)
REMARK    1  A    between atoms: O2_2  and  C6_10 
REMARK    2  A    between atoms: O4_4  and  C9_13 
REMARK    3  A    between atoms: C3_7  and  C5_9 
ROOT
ATOM      1  O1  UNK     1      47.859  12.480  -7.712  1.00  0.00    -0.309 OA
ATOM      2  O3  UNK     1      48.932   8.852  -6.200  1.00  0.00    -0.287 OA
ATOM      3  C1  UNK     1      48.597  11.159  -5.812  1.00  0.00     0.081 A 
ATOM      4  C2  UNK     1      48.218  12.368  -6.392  1.00  0.00     0.095 A 
ATOM      5  C3  UNK     1      47.881  11.341  -8.502  1.00  0.00     0.090 A 
ATOM      6  C4  UNK     1      48.613   9.947  -6.644  1.00  0.00     0.190 A 
ATOM      7  C6  UNK     1      48.953  11.104  -4.462  1.00  0.00     0.085 A 
ATOM      8  C7  UNK     1      48.221  10.120  -8.058  1.00  0.00     0.094 A 
ATOM      9  C8  UNK     1      48.192  13.533  -5.625  1.00  0.00     0.075 A 
ATOM     10  C9  UNK     1      48.547  13.482  -4.276  1.00  0.00     0.071 A 
ATOM     11  C10 UNK     1      48.926  12.270  -3.697  1.00  0.00     0.074 A 
ENDROOT
BRANCH   5  12
ATOM     12  C5  UNK     1      47.472  11.572  -9.901  1.00  0.00    -0.002 A 
ATOM     13  C12 UNK     1      48.159  12.499 -10.689  1.00  0.00     0.014 A 
ATOM     14  C14 UNK     1      47.772  12.718 -12.012  1.00  0.00     0.001 A 
ATOM     15  C15 UNK     1      46.697  12.011 -12.550  1.00  0.00     0.000 A 
ATOM     16  C13 UNK     1      46.009  11.085 -11.766  1.00  0.00     0.001 A 
ATOM     17  C11 UNK     1      46.396  10.866 -10.444  1.00  0.00     0.014 A 
ENDBRANCH   5  12
BRANCH  10  18
ATOM     18  O4  UNK     1      48.522  14.617  -3.524  1.00  0.00    -0.361 OA
ATOM     19  H10 UNK     1      48.194  15.351  -4.071  1.00  0.00     0.217 HD
ENDBRANCH  10  18
BRANCH   7  20
ATOM     20  O2  UNK     1      49.329   9.948  -3.849  1.00  0.00    -0.360 OA
ATOM     21  H9  UNK     1      49.362  10.068  -2.888  1.00  0.00     0.217 HD
ENDBRANCH   7  20
TORSDOF 3
ENDMDL
MODEL 20
REMARK VINA RESULT:      -5.0     10.527     12.800
REMARK  3 active torsions:
REMARK  status: ('A' for Active; 'I' for Inactive)
REMARK    1  A    between atoms: O2_2  and  C6_10 
REMARK    2  A    between atoms: O4_4  and  C9_13 
REMARK    3  A    between atoms: C3_7  and  C5_9 
ROOT
ATOM      1  O1  UNK     1      48.964  13.280  -8.021  1.00  0.00    -0.309 OA
ATOM      2  O3  UNK     1      48.737   9.335  -7.031  1.00  0.00    -0.287 OA
ATOM      3  C1  UNK     1      48.735  11.582  -6.300  1.00  0.00     0.081 A 
ATOM      4  C2  UNK     1      48.818  12.912  -6.707  1.00  0.00     0.095 A 
ATOM      5  C3  UNK     1      49.040  12.284  -8.982  1.00  0.00     0.090 A 
ATOM      6  C4  UNK     1      48.806  10.522  -7.316  1.00  0.00     0.190 A 
ATOM      7  C6  UNK     1      48.587  11.265  -4.947  1.00  0.00     0.085 A 
ATOM      8  C7  UNK     1      48.966  10.969  -8.715  1.00  0.00     0.094 A 
ATOM      9  C8  UNK     1      48.752  13.936  -5.763  1.00  0.00     0.075 A 
ATOM     10  C9  UNK     1      48.604  13.625  -4.411  1.00  0.00     0.071 A 
ATOM     11  C10 UNK     1      48.521  12.292  -4.005  1.00  0.00     0.074 A 
ENDROOT
BRANCH   5  12
ATOM     12  C5  UNK     1      49.189  12.789 -10.361  1.00  0.00    -0.002 A 
ATOM     13  C12 UNK     1      48.073  12.889 -11.196  1.00  0.00     0.014 A 
ATOM     14  C14 UNK     1      48.214  13.365 -12.500  1.00  0.00     0.001 A 
ATOM     15  C15 UNK     1      49.470  13.745 -12.972  1.00  0.00     0.000 A 
ATOM     16  C13 UNK     1      50.586  13.646 -12.141  1.00  0.00     0.001 A 
ATOM     17  C11 UNK     1      50.446  13.170 -10.838  1.00  0.00     0.014 A 
ENDBRANCH   5  12
BRANCH  10  18
ATOM     18  O4  UNK     1      48.538  14.623  -3.487  1.00  0.00    -0.361 OA
ATOM     19  H10 UNK     1      49.422  14.758  -3.106  1.00  0.00     0.217 HD
ENDBRANCH  10  18
BRANCH   7  20
ATOM     20  O2  UNK     1      48.501   9.982  -4.499  1.00  0.00    -0.360 OA
ATOM     21  H9  UNK     1      47.577   9.692  -4.477  1.00  0.00     0.217 HD
ENDBRANCH   7  20
TORSDOF 3
ENDMDL
