MODEL 1
REMARK VINA RESULT:      -8.2      0.000      0.000
REMARK  3 active torsions:
REMARK  status: ('A' for Active; 'I' for Inactive)
REMARK    1  A    between atoms: O2_2  and  C6_10 
REMARK    2  A    between atoms: O4_4  and  C9_13 
REMARK    3  A    between atoms: C3_7  and  C5_9 
ROOT
ATOM      1  O1  UNK     1      40.220  14.470  -0.007  1.00  0.00    -0.309 OA
ATOM      2  O3  UNK     1      41.891  11.551  -2.307  1.00  0.00    -0.287 OA
ATOM      3  C1  UNK     1      40.988  12.175  -0.214  1.00  0.00     0.081 A 
ATOM      4  C2  UNK     1      40.421  13.217   0.516  1.00  0.00     0.095 A 
ATOM      5  C3  UNK     1      40.605  14.708  -1.317  1.00  0.00     0.090 A 
ATOM      6  C4  UNK     1      41.390  12.420  -1.607  1.00  0.00     0.190 A 
ATOM      7  C6  UNK     1      41.169  10.919   0.371  1.00  0.00     0.085 A 
ATOM      8  C7  UNK     1      41.155  13.785  -2.123  1.00  0.00     0.094 A 
ATOM      9  C8  UNK     1      40.029  13.010   1.839  1.00  0.00     0.075 A 
ATOM     10  C9  UNK     1      40.208  11.757   2.427  1.00  0.00     0.071 A 
ATOM     11  C10 UNK     1      40.776  10.714   1.694  1.00  0.00     0.074 A 
ENDROOT
BRANCH   5  12
ATOM     12  C5  UNK     1      40.339  16.083  -1.782  1.00  0.00    -0.002 A 
ATOM     13  C12 UNK     1      39.772  17.019  -0.912  1.00  0.00     0.014 A 
ATOM     14  C14 UNK     1      39.519  18.320  -1.351  1.00  0.00     0.001 A 
ATOM     15  C15 UNK     1      39.833  18.688  -2.659  1.00  0.00     0.000 A 
ATOM     16  C13 UNK     1      40.399  17.756  -3.529  1.00  0.00     0.001 A 
ATOM     17  C11 UNK     1      40.652  16.457  -3.091  1.00  0.00     0.014 A 
ENDBRANCH   5  12
BRANCH  10  18
ATOM     18  O4  UNK     1      39.825  11.552   3.718  1.00  0.00    -0.361 OA
ATOM     19  H10 UNK     1      39.699  12.413   4.150  1.00  0.00     0.217 HD
ENDBRANCH  10  18
BRANCH   7  20
ATOM     20  O2  UNK     1      41.717   9.869  -0.301  1.00  0.00    -0.360 OA
ATOM     21  H9  UNK     1      41.087   9.511  -0.945  1.00  0.00     0.217 HD
ENDBRANCH   7  20
TORSDOF 3
ENDMDL
MODEL 2
REMARK VINA RESULT:      -7.8      2.428      6.286
REMARK  3 active torsions:
REMARK  status: ('A' for Active; 'I' for Inactive)
REMARK    1  A    between atoms: O2_2  and  C6_10 
REMARK    2  A    between atoms: O4_4  and  C9_13 
REMARK    3  A    between atoms: C3_7  and  C5_9 
ROOT
ATOM      1  O1  UNK     1      39.764  15.636  -0.253  1.00  0.00    -0.309 OA
ATOM      2  O3  UNK     1      40.975  17.247  -3.794  1.00  0.00    -0.287 OA
ATOM      3  C1  UNK     1      39.882  17.566  -1.723  1.00  0.00     0.081 A 
ATOM      4  C2  UNK     1      39.498  16.953  -0.532  1.00  0.00     0.095 A 
ATOM      5  C3  UNK     1      40.438  14.883  -1.201  1.00  0.00     0.090 A 
ATOM      6  C4  UNK     1      40.605  16.773  -2.728  1.00  0.00     0.190 A 
ATOM      7  C6  UNK     1      39.585  18.911  -1.953  1.00  0.00     0.085 A 
ATOM      8  C7  UNK     1      40.865  15.361  -2.382  1.00  0.00     0.094 A 
ATOM      9  C8  UNK     1      38.812  17.683   0.439  1.00  0.00     0.075 A 
ATOM     10  C9  UNK     1      38.513  19.027   0.213  1.00  0.00     0.071 A 
ATOM     11  C10 UNK     1      38.899  19.639  -0.980  1.00  0.00     0.074 A 
ENDROOT
BRANCH   5  12
ATOM     12  C5  UNK     1      40.677  13.483  -0.798  1.00  0.00    -0.002 A 
ATOM     13  C12 UNK     1      40.203  13.017   0.431  1.00  0.00     0.014 A 
ATOM     14  C14 UNK     1      40.430  11.694   0.813  1.00  0.00     0.001 A 
ATOM     15  C15 UNK     1      41.130  10.834  -0.032  1.00  0.00     0.000 A 
ATOM     16  C13 UNK     1      41.605  11.296  -1.259  1.00  0.00     0.001 A 
ATOM     17  C11 UNK     1      41.378  12.618  -1.642  1.00  0.00     0.014 A 
ENDBRANCH   5  12
BRANCH  10  18
ATOM     18  O4  UNK     1      37.845  19.743   1.160  1.00  0.00    -0.361 OA
ATOM     19  H10 UNK     1      38.039  20.688   1.036  1.00  0.00     0.217 HD
ENDBRANCH  10  18
BRANCH   7  20
ATOM     20  O2  UNK     1      39.939  19.555  -3.100  1.00  0.00    -0.360 OA
ATOM     21  H9  UNK     1      40.117  18.917  -3.807  1.00  0.00     0.217 HD
ENDBRANCH   7  20
TORSDOF 3
ENDMDL
MODEL 3
REMARK VINA RESULT:      -7.8      2.427      6.382
REMARK  3 active torsions:
REMARK  status: ('A' for Active; 'I' for Inactive)
REMARK    1  A    between atoms: O2_2  and  C6_10 
REMARK    2  A    between atoms: O4_4  and  C9_13 
REMARK    3  A    between atoms: C3_7  and  C5_9 
ROOT
ATOM      1  O1  UNK     1      39.764  15.636  -0.248  1.00  0.00    -0.309 OA
ATOM      2  O3  UNK     1      40.972  17.244  -3.791  1.00  0.00    -0.287 OA
ATOM      3  C1  UNK     1      39.881  17.565  -1.720  1.00  0.00     0.081 A 
ATOM      4  C2  UNK     1      39.497  16.953  -0.528  1.00  0.00     0.095 A 
ATOM      5  C3  UNK     1      40.438  14.882  -1.196  1.00  0.00     0.090 A 
ATOM      6  C4  UNK     1      40.604  16.771  -2.725  1.00  0.00     0.190 A 
ATOM      7  C6  UNK     1      39.583  18.910  -1.952  1.00  0.00     0.085 A 
ATOM      8  C7  UNK     1      40.864  15.359  -2.377  1.00  0.00     0.094 A 
ATOM      9  C8  UNK     1      38.812  17.684   0.443  1.00  0.00     0.075 A 
ATOM     10  C9  UNK     1      38.512  19.028   0.215  1.00  0.00     0.071 A 
ATOM     11  C10 UNK     1      38.897  19.639  -0.979  1.00  0.00     0.074 A 
ENDROOT
BRANCH   5  12
ATOM     12  C5  UNK     1      40.678  13.483  -0.791  1.00  0.00    -0.002 A 
ATOM     13  C12 UNK     1      41.371  12.617  -1.641  1.00  0.00     0.014 A 
ATOM     14  C14 UNK     1      41.598  11.294  -1.259  1.00  0.00     0.001 A 
ATOM     15  C15 UNK     1      41.134  10.834  -0.026  1.00  0.00     0.000 A 
ATOM     16  C13 UNK     1      40.442  11.697   0.824  1.00  0.00     0.001 A 
ATOM     17  C11 UNK     1      40.215  13.019   0.442  1.00  0.00     0.014 A 
ENDBRANCH   5  12
BRANCH  10  18
ATOM     18  O4  UNK     1      37.844  19.744   1.161  1.00  0.00    -0.361 OA
ATOM     19  H10 UNK     1      37.735  20.657   0.846  1.00  0.00     0.217 HD
ENDBRANCH  10  18
BRANCH   7  20
ATOM     20  O2  UNK     1      39.936  19.553  -3.099  1.00  0.00    -0.360 OA
ATOM     21  H9  UNK     1      39.162  19.971  -3.506  1.00  0.00     0.217 HD
ENDBRANCH   7  20
TORSDOF 3
ENDMDL
MODEL 4
REMARK VINA RESULT:      -7.6      2.603      4.203
REMARK  3 active torsions:
REMARK  status: ('A' for Active; 'I' for Inactive)
REMARK    1  A    between atoms: O2_2  and  C6_10 
REMARK    2  A    between atoms: O4_4  and  C9_13 
REMARK    3  A    between atoms: C3_7  and  C5_9 
ROOT
ATOM      1  O1  UNK     1      40.345  17.004  -1.222  1.00  0.00    -0.309 OA
ATOM      2  O3  UNK     1      36.886  14.930  -0.643  1.00  0.00    -0.287 OA
ATOM      3  C1  UNK     1      39.194  14.866  -1.146  1.00  0.00     0.081 A 
ATOM      4  C2  UNK     1      40.341  15.636  -1.331  1.00  0.00     0.095 A 
ATOM      5  C3  UNK     1      39.153  17.646  -0.923  1.00  0.00     0.090 A 
ATOM      6  C4  UNK     1      37.930  15.543  -0.820  1.00  0.00     0.190 A 
ATOM      7  C6  UNK     1      39.249  13.476  -1.269  1.00  0.00     0.085 A 
ATOM      8  C7  UNK     1      37.986  17.016  -0.717  1.00  0.00     0.094 A 
ATOM      9  C8  UNK     1      41.553  15.019  -1.639  1.00  0.00     0.075 A 
ATOM     10  C9  UNK     1      41.613  13.630  -1.763  1.00  0.00     0.071 A 
ATOM     11  C10 UNK     1      40.463  12.861  -1.578  1.00  0.00     0.074 A 
ENDROOT
BRANCH   5  12
ATOM     12  C5  UNK     1      39.271  19.114  -0.824  1.00  0.00    -0.002 A 
ATOM     13  C12 UNK     1      38.593  19.805   0.184  1.00  0.00     0.014 A 
ATOM     14  C14 UNK     1      38.703  21.193   0.279  1.00  0.00     0.001 A 
ATOM     15  C15 UNK     1      39.491  21.894  -0.634  1.00  0.00     0.000 A 
ATOM     16  C13 UNK     1      40.169  21.207  -1.642  1.00  0.00     0.001 A 
ATOM     17  C11 UNK     1      40.059  19.820  -1.736  1.00  0.00     0.014 A 
ENDBRANCH   5  12
BRANCH  10  18
ATOM     18  O4  UNK     1      42.795  13.024  -2.063  1.00  0.00    -0.361 OA
ATOM     19  H10 UNK     1      42.727  12.078  -1.850  1.00  0.00     0.217 HD
ENDBRANCH  10  18
BRANCH   7  20
ATOM     20  O2  UNK     1      38.157  12.680  -1.098  1.00  0.00    -0.360 OA
ATOM     21  H9  UNK     1      37.923  12.622  -0.159  1.00  0.00     0.217 HD
ENDBRANCH   7  20
TORSDOF 3
ENDMDL
MODEL 5
REMARK VINA RESULT:      -7.2      2.425      6.914
REMARK  3 active torsions:
REMARK  status: ('A' for Active; 'I' for Inactive)
REMARK    1  A    between atoms: O2_2  and  C6_10 
REMARK    2  A    between atoms: O4_4  and  C9_13 
REMARK    3  A    between atoms: C3_7  and  C5_9 
ROOT
ATOM      1  O1  UNK     1      40.730  15.128  -2.140  1.00  0.00    -0.309 OA
ATOM      2  O3  UNK     1      38.950  17.826   0.340  1.00  0.00    -0.287 OA
ATOM      3  C1  UNK     1      39.927  17.390  -1.767  1.00  0.00     0.081 A 
ATOM      4  C2  UNK     1      40.528  16.417  -2.564  1.00  0.00     0.095 A 
ATOM      5  C3  UNK     1      40.324  14.782  -0.860  1.00  0.00     0.090 A 
ATOM      6  C4  UNK     1      39.487  17.025  -0.412  1.00  0.00     0.190 A 
ATOM      7  C6  UNK     1      39.746  18.688  -2.251  1.00  0.00     0.085 A 
ATOM      8  C7  UNK     1      39.729  15.626  -0.002  1.00  0.00     0.094 A 
ATOM      9  C8  UNK     1      40.952  16.737  -3.853  1.00  0.00     0.075 A 
ATOM     10  C9  UNK     1      40.775  18.032  -4.341  1.00  0.00     0.071 A 
ATOM     11  C10 UNK     1      40.172  19.005  -3.541  1.00  0.00     0.074 A 
ENDROOT
BRANCH   5  12
ATOM     12  C5  UNK     1      40.582  13.372  -0.509  1.00  0.00    -0.002 A 
ATOM     13  C12 UNK     1      40.144  12.863   0.717  1.00  0.00     0.014 A 
ATOM     14  C14 UNK     1      40.388  11.530   1.050  1.00  0.00     0.001 A 
ATOM     15  C15 UNK     1      41.070  10.702   0.158  1.00  0.00     0.000 A 
ATOM     16  C13 UNK     1      41.508  11.207  -1.066  1.00  0.00     0.001 A 
ATOM     17  C11 UNK     1      41.264  12.539  -1.399  1.00  0.00     0.014 A 
ENDBRANCH   5  12
BRANCH  10  18
ATOM     18  O4  UNK     1      41.187  18.347  -5.600  1.00  0.00    -0.361 OA
ATOM     19  H10 UNK     1      40.408  18.543  -6.147  1.00  0.00     0.217 HD
ENDBRANCH  10  18
BRANCH   7  20
ATOM     20  O2  UNK     1      39.164  19.672  -1.512  1.00  0.00    -0.360 OA
ATOM     21  H9  UNK     1      38.334  19.958  -1.921  1.00  0.00     0.217 HD
ENDBRANCH   7  20
TORSDOF 3
ENDMDL
MODEL 6
REMARK VINA RESULT:      -6.7      1.641      2.696
REMARK  3 active torsions:
REMARK  status: ('A' for Active; 'I' for Inactive)
REMARK    1  A    between atoms: O2_2  and  C6_10 
REMARK    2  A    between atoms: O4_4  and  C9_13 
REMARK    3  A    between atoms: C3_7  and  C5_9 
ROOT
ATOM      1  O1  UNK     1      39.449  15.252  -0.128  1.00  0.00    -0.309 OA
ATOM      2  O3  UNK     1      42.474  14.701  -2.801  1.00  0.00    -0.287 OA
ATOM      3  C1  UNK     1      40.996  13.737  -1.230  1.00  0.00     0.081 A 
ATOM      4  C2  UNK     1      39.961  13.995  -0.332  1.00  0.00     0.095 A 
ATOM      5  C3  UNK     1      39.991  16.310  -0.841  1.00  0.00     0.090 A 
ATOM      6  C4  UNK     1      41.567  14.855  -1.995  1.00  0.00     0.190 A 
ATOM      7  C6  UNK     1      41.478  12.437  -1.398  1.00  0.00     0.085 A 
ATOM      8  C7  UNK     1      40.984  16.188  -1.737  1.00  0.00     0.094 A 
ATOM      9  C8  UNK     1      39.400  12.952   0.404  1.00  0.00     0.075 A 
ATOM     10  C9  UNK     1      39.879  11.651   0.240  1.00  0.00     0.071 A 
ATOM     11  C10 UNK     1      40.915  11.395  -0.660  1.00  0.00     0.074 A 
ENDROOT
BRANCH   5  12
ATOM     12  C5  UNK     1      39.364  17.614  -0.550  1.00  0.00    -0.002 A 
ATOM     13  C12 UNK     1      39.551  18.692  -1.419  1.00  0.00     0.014 A 
ATOM     14  C14 UNK     1      38.959  19.925  -1.145  1.00  0.00     0.001 A 
ATOM     15  C15 UNK     1      38.176  20.084  -0.001  1.00  0.00     0.000 A 
ATOM     16  C13 UNK     1      37.987  19.010   0.869  1.00  0.00     0.001 A 
ATOM     17  C11 UNK     1      38.579  17.777   0.595  1.00  0.00     0.014 A 
ENDBRANCH   5  12
BRANCH  10  18
ATOM     18  O4  UNK     1      39.333  10.630   0.957  1.00  0.00    -0.361 OA
ATOM     19  H10 UNK     1      40.022  10.234   1.516  1.00  0.00     0.217 HD
ENDBRANCH  10  18
BRANCH   7  20
ATOM     20  O2  UNK     1      42.486  12.134  -2.262  1.00  0.00    -0.360 OA
ATOM     21  H9  UNK     1      42.389  11.227  -2.592  1.00  0.00     0.217 HD
ENDBRANCH   7  20
TORSDOF 3
ENDMDL
MODEL 7
REMARK VINA RESULT:      -6.5      3.314      5.746
REMARK  3 active torsions:
REMARK  status: ('A' for Active; 'I' for Inactive)
REMARK    1  A    between atoms: O2_2  and  C6_10 
REMARK    2  A    between atoms: O4_4  and  C9_13 
REMARK    3  A    between atoms: C3_7  and  C5_9 
ROOT
ATOM      1  O1  UNK     1      39.524  18.730  -0.707  1.00  0.00    -0.309 OA
ATOM      2  O3  UNK     1      40.726  18.349  -4.581  1.00  0.00    -0.287 OA
ATOM      3  C1  UNK     1      39.939  17.291  -2.619  1.00  0.00     0.081 A 
ATOM      4  C2  UNK     1      39.539  17.492  -1.300  1.00  0.00     0.095 A 
ATOM      5  C3  UNK     1      39.932  19.825  -1.452  1.00  0.00     0.090 A 
ATOM      6  C4  UNK     1      40.364  18.451  -3.417  1.00  0.00     0.190 A 
ATOM      7  C6  UNK     1      39.935  16.008  -3.172  1.00  0.00     0.085 A 
ATOM      8  C7  UNK     1      40.333  19.760  -2.732  1.00  0.00     0.094 A 
ATOM      9  C8  UNK     1      39.129  16.409  -0.522  1.00  0.00     0.075 A 
ATOM     10  C9  UNK     1      39.123  15.125  -1.070  1.00  0.00     0.071 A 
ATOM     11  C10 UNK     1      39.524  14.926  -2.392  1.00  0.00     0.074 A 
ENDROOT
BRANCH   5  12
ATOM     12  C5  UNK     1      39.870  21.106  -0.721  1.00  0.00    -0.002 A 
ATOM     13  C12 UNK     1      40.387  22.268  -1.299  1.00  0.00     0.014 A 
ATOM     14  C14 UNK     1      40.329  23.480  -0.609  1.00  0.00     0.001 A 
ATOM     15  C15 UNK     1      39.755  23.532   0.661  1.00  0.00     0.000 A 
ATOM     16  C13 UNK     1      39.239  22.373   1.241  1.00  0.00     0.001 A 
ATOM     17  C11 UNK     1      39.296  21.162   0.551  1.00  0.00     0.014 A 
ENDBRANCH   5  12
BRANCH  10  18
ATOM     18  O4  UNK     1      38.723  14.066  -0.314  1.00  0.00    -0.361 OA
ATOM     19  H10 UNK     1      39.503  13.662   0.102  1.00  0.00     0.217 HD
ENDBRANCH  10  18
BRANCH   7  20
ATOM     20  O2  UNK     1      40.316  15.760  -4.455  1.00  0.00    -0.360 OA
ATOM     21  H9  UNK     1      40.275  14.811  -4.644  1.00  0.00     0.217 HD
ENDBRANCH   7  20
TORSDOF 3
ENDMDL
MODEL 8
REMARK VINA RESULT:      -6.0     14.547     16.795
REMARK  3 active torsions:
REMARK  status: ('A' for Active; 'I' for Inactive)
REMARK    1  A    between atoms: O2_2  and  C6_10 
REMARK    2  A    between atoms: O4_4  and  C9_13 
REMARK    3  A    between atoms: C3_7  and  C5_9 
ROOT
ATOM      1  O1  UNK     1      43.197   1.476   7.902  1.00  0.00    -0.309 OA
ATOM      2  O3  UNK     1      41.883  -1.346  10.531  1.00  0.00    -0.287 OA
ATOM      3  C1  UNK     1      41.337   0.275   8.900  1.00  0.00     0.081 A 
ATOM      4  C2  UNK     1      41.853   1.225   8.021  1.00  0.00     0.095 A 
ATOM      5  C3  UNK     1      44.076   0.758   8.698  1.00  0.00     0.090 A 
ATOM      6  C4  UNK     1      42.266  -0.495   9.739  1.00  0.00     0.190 A 
ATOM      7  C6  UNK     1      39.959   0.060   8.979  1.00  0.00     0.085 A 
ATOM      8  C7  UNK     1      43.702  -0.186   9.577  1.00  0.00     0.094 A 
ATOM      9  C8  UNK     1      40.993   1.967   7.212  1.00  0.00     0.075 A 
ATOM     10  C9  UNK     1      39.616   1.757   7.288  1.00  0.00     0.071 A 
ATOM     11  C10 UNK     1      39.100   0.805   8.169  1.00  0.00     0.074 A 
ENDROOT
BRANCH   5  12
ATOM     12  C5  UNK     1      45.496   1.102   8.487  1.00  0.00    -0.002 A 
ATOM     13  C12 UNK     1      45.879   1.843   7.365  1.00  0.00     0.014 A 
ATOM     14  C14 UNK     1      47.221   2.169   7.164  1.00  0.00     0.001 A 
ATOM     15  C15 UNK     1      48.184   1.755   8.084  1.00  0.00     0.000 A 
ATOM     16  C13 UNK     1      47.805   1.015   9.204  1.00  0.00     0.001 A 
ATOM     17  C11 UNK     1      46.464   0.690   9.406  1.00  0.00     0.014 A 
ENDBRANCH   5  12
BRANCH  10  18
ATOM     18  O4  UNK     1      38.773   2.480   6.499  1.00  0.00    -0.361 OA
ATOM     19  H10 UNK     1      38.625   3.348   6.909  1.00  0.00     0.217 HD
ENDBRANCH  10  18
BRANCH   7  20
ATOM     20  O2  UNK     1      39.405  -0.856   9.821  1.00  0.00    -0.360 OA
ATOM     21  H9  UNK     1      38.983  -0.414  10.573  1.00  0.00     0.217 HD
ENDBRANCH   7  20
TORSDOF 3
ENDMDL
MODEL 9
REMARK VINA RESULT:      -6.0     15.017     16.923
REMARK  3 active torsions:
REMARK  status: ('A' for Active; 'I' for Inactive)
REMARK    1  A    between atoms: O2_2  and  C6_10 
REMARK    2  A    between atoms: O4_4  and  C9_13 
REMARK    3  A    between atoms: C3_7  and  C5_9 
ROOT
ATOM      1  O1  UNK     1      44.007   0.081   8.979  1.00  0.00    -0.309 OA
ATOM      2  O3  UNK     1      40.971   2.219   7.302  1.00  0.00    -0.287 OA
ATOM      3  C1  UNK     1      41.621   0.378   8.634  1.00  0.00     0.081 A 
ATOM      4  C2  UNK     1      42.705  -0.307   9.179  1.00  0.00     0.095 A 
ATOM      5  C3  UNK     1      44.251   1.198   8.195  1.00  0.00     0.090 A 
ATOM      6  C4  UNK     1      41.875   1.569   7.809  1.00  0.00     0.190 A 
ATOM      7  C6  UNK     1      40.316  -0.061   8.870  1.00  0.00     0.085 A 
ATOM      8  C7  UNK     1      43.292   1.943   7.622  1.00  0.00     0.094 A 
ATOM      9  C8  UNK     1      42.492  -1.438   9.966  1.00  0.00     0.075 A 
ATOM     10  C9  UNK     1      41.190  -1.881  10.204  1.00  0.00     0.071 A 
ATOM     11  C10 UNK     1      40.105  -1.193   9.658  1.00  0.00     0.074 A 
ENDROOT
BRANCH   5  12
ATOM     12  C5  UNK     1      45.682   1.530   8.052  1.00  0.00    -0.002 A 
ATOM     13  C12 UNK     1      46.112   2.336   6.995  1.00  0.00     0.014 A 
ATOM     14  C14 UNK     1      47.465   2.650   6.858  1.00  0.00     0.001 A 
ATOM     15  C15 UNK     1      48.391   2.159   7.777  1.00  0.00     0.000 A 
ATOM     16  C13 UNK     1      47.965   1.353   8.834  1.00  0.00     0.001 A 
ATOM     17  C11 UNK     1      46.613   1.040   8.971  1.00  0.00     0.014 A 
ENDBRANCH   5  12
BRANCH  10  18
ATOM     18  O4  UNK     1      40.978  -2.985  10.974  1.00  0.00    -0.361 OA
ATOM     19  H10 UNK     1      40.835  -2.705  11.894  1.00  0.00     0.217 HD
ENDBRANCH  10  18
BRANCH   7  20
ATOM     20  O2  UNK     1      39.224   0.573   8.361  1.00  0.00    -0.360 OA
ATOM     21  H9  UNK     1      38.452   0.427   8.927  1.00  0.00     0.217 HD
ENDBRANCH   7  20
TORSDOF 3
ENDMDL
MODEL 10
REMARK VINA RESULT:      -6.0     14.722     16.421
REMARK  3 active torsions:
REMARK  status: ('A' for Active; 'I' for Inactive)
REMARK    1  A    between atoms: O2_2  and  C6_10 
REMARK    2  A    between atoms: O4_4  and  C9_13 
REMARK    3  A    between atoms: C3_7  and  C5_9 
ROOT
ATOM      1  O1  UNK     1      43.579   1.335   8.464  1.00  0.00    -0.309 OA
ATOM      2  O3  UNK     1      42.714   4.747  10.515  1.00  0.00    -0.287 OA
ATOM      3  C1  UNK     1      41.923   2.955   9.193  1.00  0.00     0.081 A 
ATOM      4  C2  UNK     1      42.287   1.796   8.511  1.00  0.00     0.095 A 
ATOM      5  C3  UNK     1      44.564   2.061   9.117  1.00  0.00     0.090 A 
ATOM      6  C4  UNK     1      42.962   3.722   9.895  1.00  0.00     0.190 A 
ATOM      7  C6  UNK     1      40.591   3.377   9.208  1.00  0.00     0.085 A 
ATOM      8  C7  UNK     1      44.337   3.187   9.811  1.00  0.00     0.094 A 
ATOM      9  C8  UNK     1      41.320   1.048   7.839  1.00  0.00     0.075 A 
ATOM     10  C9  UNK     1      39.989   1.466   7.851  1.00  0.00     0.071 A 
ATOM     11  C10 UNK     1      39.626   2.627   8.535  1.00  0.00     0.074 A 
ENDROOT
BRANCH   5  12
ATOM     12  C5  UNK     1      45.914   1.474   9.007  1.00  0.00    -0.002 A 
ATOM     13  C12 UNK     1      46.315   0.466   9.888  1.00  0.00     0.014 A 
ATOM     14  C14 UNK     1      47.591  -0.088   9.786  1.00  0.00     0.001 A 
ATOM     15  C15 UNK     1      48.471   0.364   8.802  1.00  0.00     0.000 A 
ATOM     16  C13 UNK     1      48.074   1.370   7.921  1.00  0.00     0.001 A 
ATOM     17  C11 UNK     1      46.798   1.924   8.023  1.00  0.00     0.014 A 
ENDBRANCH   5  12
BRANCH  10  18
ATOM     18  O4  UNK     1      39.042   0.738   7.197  1.00  0.00    -0.361 OA
ATOM     19  H10 UNK     1      39.230   0.761   6.244  1.00  0.00     0.217 HD
ENDBRANCH  10  18
BRANCH   7  20
ATOM     20  O2  UNK     1      40.185   4.501   9.860  1.00  0.00    -0.360 OA
ATOM     21  H9  UNK     1      39.473   4.293  10.485  1.00  0.00     0.217 HD
ENDBRANCH   7  20
TORSDOF 3
ENDMDL
MODEL 11
REMARK VINA RESULT:      -6.0     14.540     16.762
REMARK  3 active torsions:
REMARK  status: ('A' for Active; 'I' for Inactive)
REMARK    1  A    between atoms: O2_2  and  C6_10 
REMARK    2  A    between atoms: O4_4  and  C9_13 
REMARK    3  A    between atoms: C3_7  and  C5_9 
ROOT
ATOM      1  O1  UNK     1      43.318   1.523   7.917  1.00  0.00    -0.309 OA
ATOM      2  O3  UNK     1      42.031  -1.212  10.649  1.00  0.00    -0.287 OA
ATOM      3  C1  UNK     1      41.468   0.359   8.976  1.00  0.00     0.081 A 
ATOM      4  C2  UNK     1      41.975   1.279   8.061  1.00  0.00     0.095 A 
ATOM      5  C3  UNK     1      44.206   0.827   8.724  1.00  0.00     0.090 A 
ATOM      6  C4  UNK     1      42.406  -0.388   9.827  1.00  0.00     0.190 A 
ATOM      7  C6  UNK     1      40.090   0.151   9.079  1.00  0.00     0.085 A 
ATOM      8  C7  UNK     1      43.840  -0.088   9.636  1.00  0.00     0.094 A 
ATOM      9  C8  UNK     1      41.107   1.999   7.241  1.00  0.00     0.075 A 
ATOM     10  C9  UNK     1      39.730   1.795   7.341  1.00  0.00     0.071 A 
ATOM     11  C10 UNK     1      39.223   0.873   8.258  1.00  0.00     0.074 A 
ENDROOT
BRANCH   5  12
ATOM     12  C5  UNK     1      45.623   1.160   8.483  1.00  0.00    -0.002 A 
ATOM     13  C12 UNK     1      46.604   0.751   9.390  1.00  0.00     0.014 A 
ATOM     14  C14 UNK     1      47.944   1.065   9.164  1.00  0.00     0.001 A 
ATOM     15  C15 UNK     1      48.309   1.790   8.029  1.00  0.00     0.000 A 
ATOM     16  C13 UNK     1      47.332   2.200   7.121  1.00  0.00     0.001 A 
ATOM     17  C11 UNK     1      45.992   1.885   7.347  1.00  0.00     0.014 A 
ENDBRANCH   5  12
BRANCH  10  18
ATOM     18  O4  UNK     1      38.879   2.496   6.541  1.00  0.00    -0.361 OA
ATOM     19  H10 UNK     1      39.297   3.340   6.299  1.00  0.00     0.217 HD
ENDBRANCH  10  18
BRANCH   7  20
ATOM     20  O2  UNK     1      39.545  -0.737   9.957  1.00  0.00    -0.360 OA
ATOM     21  H9  UNK     1      38.735  -1.122   9.590  1.00  0.00     0.217 HD
ENDBRANCH   7  20
TORSDOF 3
ENDMDL
MODEL 12
REMARK VINA RESULT:      -6.0     14.770     16.704
REMARK  3 active torsions:
REMARK  status: ('A' for Active; 'I' for Inactive)
REMARK    1  A    between atoms: O2_2  and  C6_10 
REMARK    2  A    between atoms: O4_4  and  C9_13 
REMARK    3  A    between atoms: C3_7  and  C5_9 
ROOT
ATOM      1  O1  UNK     1      44.933   1.851   7.551  1.00  0.00    -0.309 OA
ATOM      2  O3  UNK     1      46.793   0.390  10.868  1.00  0.00    -0.287 OA
ATOM      3  C1  UNK     1      46.991   1.504   8.793  1.00  0.00     0.081 A 
ATOM      4  C2  UNK     1      46.293   1.982   7.686  1.00  0.00     0.095 A 
ATOM      5  C3  UNK     1      44.228   1.210   8.557  1.00  0.00     0.090 A 
ATOM      6  C4  UNK     1      46.246   0.831   9.867  1.00  0.00     0.190 A 
ATOM      7  C6  UNK     1      48.376   1.665   8.878  1.00  0.00     0.085 A 
ATOM      8  C7  UNK     1      44.786   0.714   9.673  1.00  0.00     0.094 A 
ATOM      9  C8  UNK     1      46.976   2.625   6.655  1.00  0.00     0.075 A 
ATOM     10  C9  UNK     1      48.360   2.788   6.735  1.00  0.00     0.071 A 
ATOM     11  C10 UNK     1      49.057   2.309   7.845  1.00  0.00     0.074 A 
ENDROOT
BRANCH   5  12
ATOM     12  C5  UNK     1      42.774   1.130   8.314  1.00  0.00    -0.002 A 
ATOM     13  C12 UNK     1      42.112   2.178   7.668  1.00  0.00     0.014 A 
ATOM     14  C14 UNK     1      40.738   2.103   7.439  1.00  0.00     0.001 A 
ATOM     15  C15 UNK     1      40.021   0.981   7.854  1.00  0.00     0.000 A 
ATOM     16  C13 UNK     1      40.679  -0.066   8.500  1.00  0.00     0.001 A 
ATOM     17  C11 UNK     1      42.052   0.008   8.729  1.00  0.00     0.014 A 
ENDBRANCH   5  12
BRANCH  10  18
ATOM     18  O4  UNK     1      49.029   3.417   5.730  1.00  0.00    -0.361 OA
ATOM     19  H10 UNK     1      48.392   3.908   5.185  1.00  0.00     0.217 HD
ENDBRANCH  10  18
BRANCH   7  20
ATOM     20  O2  UNK     1      49.104   1.217   9.939  1.00  0.00    -0.360 OA
ATOM     21  H9  UNK     1      49.936   0.822   9.637  1.00  0.00     0.217 HD
ENDBRANCH   7  20
TORSDOF 3
ENDMDL
MODEL 13
REMARK VINA RESULT:      -6.0     13.187     15.001
REMARK  3 active torsions:
REMARK  status: ('A' for Active; 'I' for Inactive)
REMARK    1  A    between atoms: O2_2  and  C6_10 
REMARK    2  A    between atoms: O4_4  and  C9_13 
REMARK    3  A    between atoms: C3_7  and  C5_9 
ROOT
ATOM      1  O1  UNK     1      38.857  22.217  11.006  1.00  0.00    -0.309 OA
ATOM      2  O3  UNK     1      37.584  19.782  14.014  1.00  0.00    -0.287 OA
ATOM      3  C1  UNK     1      39.211  20.232  12.361  1.00  0.00     0.081 A 
ATOM      4  C2  UNK     1      39.589  21.107  11.344  1.00  0.00     0.095 A 
ATOM      5  C3  UNK     1      37.686  22.473  11.703  1.00  0.00     0.090 A 
ATOM      6  C4  UNK     1      37.975  20.505  13.109  1.00  0.00     0.190 A 
ATOM      7  C6  UNK     1      39.996  19.117  12.662  1.00  0.00     0.085 A 
ATOM      8  C7  UNK     1      37.220  21.710  12.705  1.00  0.00     0.094 A 
ATOM      9  C8  UNK     1      40.759  20.872  10.621  1.00  0.00     0.075 A 
ATOM     10  C9  UNK     1      41.546  19.759  10.918  1.00  0.00     0.071 A 
ATOM     11  C10 UNK     1      41.165  18.884  11.937  1.00  0.00     0.074 A 
ENDROOT
BRANCH   5  12
ATOM     12  C5  UNK     1      36.980  23.693  11.264  1.00  0.00    -0.002 A 
ATOM     13  C12 UNK     1      37.358  24.941  11.766  1.00  0.00     0.014 A 
ATOM     14  C14 UNK     1      36.691  26.095  11.352  1.00  0.00     0.001 A 
ATOM     15  C15 UNK     1      35.645  26.004  10.434  1.00  0.00     0.000 A 
ATOM     16  C13 UNK     1      35.266  24.760   9.930  1.00  0.00     0.001 A 
ATOM     17  C11 UNK     1      35.932  23.607  10.344  1.00  0.00     0.014 A 
ENDBRANCH   5  12
BRANCH  10  18
ATOM     18  O4  UNK     1      42.689  19.527  10.215  1.00  0.00    -0.361 OA
ATOM     19  H10 UNK     1      43.394  19.275  10.834  1.00  0.00     0.217 HD
ENDBRANCH  10  18
BRANCH   7  20
ATOM     20  O2  UNK     1      39.670  18.234  13.646  1.00  0.00    -0.360 OA
ATOM     21  H9  UNK     1      38.732  17.994  13.590  1.00  0.00     0.217 HD
ENDBRANCH   7  20
TORSDOF 3
ENDMDL
MODEL 14
REMARK VINA RESULT:      -5.9     14.921     16.836
REMARK  3 active torsions:
REMARK  status: ('A' for Active; 'I' for Inactive)
REMARK    1  A    between atoms: O2_2  and  C6_10 
REMARK    2  A    between atoms: O4_4  and  C9_13 
REMARK    3  A    between atoms: C3_7  and  C5_9 
ROOT
ATOM      1  O1  UNK     1      41.886  -0.430   8.425  1.00  0.00    -0.309 OA
ATOM      2  O3  UNK     1      39.176   2.305   7.093  1.00  0.00    -0.287 OA
ATOM      3  C1  UNK     1      39.580   0.119   7.895  1.00  0.00     0.081 A 
ATOM      4  C2  UNK     1      40.559  -0.767   8.343  1.00  0.00     0.095 A 
ATOM      5  C3  UNK     1      42.269   0.845   8.039  1.00  0.00     0.090 A 
ATOM      6  C4  UNK     1      39.981   1.475   7.493  1.00  0.00     0.190 A 
ATOM      7  C6  UNK     1      38.243  -0.278   7.832  1.00  0.00     0.085 A 
ATOM      8  C7  UNK     1      41.421   1.788   7.597  1.00  0.00     0.094 A 
ATOM      9  C8  UNK     1      40.205  -2.058   8.732  1.00  0.00     0.075 A 
ATOM     10  C9  UNK     1      38.870  -2.460   8.671  1.00  0.00     0.071 A 
ATOM     11  C10 UNK     1      37.891  -1.571   8.222  1.00  0.00     0.074 A 
ENDROOT
BRANCH   5  12
ATOM     12  C5  UNK     1      43.716   1.104   8.173  1.00  0.00    -0.002 A 
ATOM     13  C12 UNK     1      44.429   0.564   9.247  1.00  0.00     0.014 A 
ATOM     14  C14 UNK     1      45.797   0.809   9.375  1.00  0.00     0.001 A 
ATOM     15  C15 UNK     1      46.456   1.594   8.429  1.00  0.00     0.000 A 
ATOM     16  C13 UNK     1      45.748   2.135   7.356  1.00  0.00     0.001 A 
ATOM     17  C11 UNK     1      44.381   1.890   7.228  1.00  0.00     0.014 A 
ENDBRANCH   5  12
BRANCH  10  18
ATOM     18  O4  UNK     1      38.521  -3.720   9.051  1.00  0.00    -0.361 OA
ATOM     19  H10 UNK     1      37.944  -4.106   8.371  1.00  0.00     0.217 HD
ENDBRANCH  10  18
BRANCH   7  20
ATOM     20  O2  UNK     1      37.250   0.550   7.403  1.00  0.00    -0.360 OA
ATOM     21  H9  UNK     1      37.512   0.998   6.584  1.00  0.00     0.217 HD
ENDBRANCH   7  20
TORSDOF 3
ENDMDL
MODEL 15
REMARK VINA RESULT:      -5.9     12.998     13.900
REMARK  3 active torsions:
REMARK  status: ('A' for Active; 'I' for Inactive)
REMARK    1  A    between atoms: O2_2  and  C6_10 
REMARK    2  A    between atoms: O4_4  and  C9_13 
REMARK    3  A    between atoms: C3_7  and  C5_9 
ROOT
ATOM      1  O1  UNK     1      42.719  20.846  10.609  1.00  0.00    -0.309 OA
ATOM      2  O3  UNK     1      43.763  17.201  12.101  1.00  0.00    -0.287 OA
ATOM      3  C1  UNK     1      44.467  19.253  11.163  1.00  0.00     0.081 A 
ATOM      4  C2  UNK     1      44.042  20.483  10.666  1.00  0.00     0.095 A 
ATOM      5  C3  UNK     1      41.767  19.945  11.059  1.00  0.00     0.090 A 
ATOM      6  C4  UNK     1      43.461  18.298  11.650  1.00  0.00     0.190 A 
ATOM      7  C6  UNK     1      45.827  18.937  11.197  1.00  0.00     0.085 A 
ATOM      8  C7  UNK     1      42.052  18.734  11.565  1.00  0.00     0.094 A 
ATOM      9  C8  UNK     1      44.976  21.408  10.200  1.00  0.00     0.075 A 
ATOM     10  C9  UNK     1      46.336  21.097  10.232  1.00  0.00     0.071 A 
ATOM     11  C10 UNK     1      46.760  19.864  10.730  1.00  0.00     0.074 A 
ENDROOT
BRANCH   5  12
ATOM     12  C5  UNK     1      40.379  20.438  10.959  1.00  0.00    -0.002 A 
ATOM     13  C12 UNK     1      39.487  20.241  12.017  1.00  0.00     0.014 A 
ATOM     14  C14 UNK     1      38.175  20.706  11.923  1.00  0.00     0.001 A 
ATOM     15  C15 UNK     1      37.751  21.370  10.772  1.00  0.00     0.000 A 
ATOM     16  C13 UNK     1      38.639  21.567   9.714  1.00  0.00     0.001 A 
ATOM     17  C11 UNK     1      39.950  21.103   9.808  1.00  0.00     0.014 A 
ENDBRANCH   5  12
BRANCH  10  18
ATOM     18  O4  UNK     1      47.251  21.998   9.779  1.00  0.00    -0.361 OA
ATOM     19  H10 UNK     1      46.825  22.869   9.705  1.00  0.00     0.217 HD
ENDBRANCH  10  18
BRANCH   7  20
ATOM     20  O2  UNK     1      46.293  17.749  11.673  1.00  0.00    -0.360 OA
ATOM     21  H9  UNK     1      45.783  17.012  11.304  1.00  0.00     0.217 HD
ENDBRANCH   7  20
TORSDOF 3
ENDMDL
MODEL 16
REMARK VINA RESULT:      -5.8     20.778     22.064
REMARK  3 active torsions:
REMARK  status: ('A' for Active; 'I' for Inactive)
REMARK    1  A    between atoms: O2_2  and  C6_10 
REMARK    2  A    between atoms: O4_4  and  C9_13 
REMARK    3  A    between atoms: C3_7  and  C5_9 
ROOT
ATOM      1  O1  UNK     1      56.023  -1.055   2.490  1.00  0.00    -0.309 OA
ATOM      2  O3  UNK     1      52.636  -2.257   0.570  1.00  0.00    -0.287 OA
ATOM      3  C1  UNK     1      54.892  -1.573   0.403  1.00  0.00     0.081 A 
ATOM      4  C2  UNK     1      56.016  -1.169   1.122  1.00  0.00     0.095 A 
ATOM      5  C3  UNK     1      54.859  -1.348   3.183  1.00  0.00     0.090 A 
ATOM      6  C4  UNK     1      53.658  -1.894   1.136  1.00  0.00     0.190 A 
ATOM      7  C6  UNK     1      54.942  -1.672  -0.989  1.00  0.00     0.085 A 
ATOM      8  C7  UNK     1      53.717  -1.753   2.605  1.00  0.00     0.094 A 
ATOM      9  C8  UNK     1      57.199  -0.861   0.451  1.00  0.00     0.075 A 
ATOM     10  C9  UNK     1      57.253  -0.957  -0.940  1.00  0.00     0.071 A 
ATOM     11  C10 UNK     1      56.127  -1.363  -1.658  1.00  0.00     0.074 A 
ENDROOT
BRANCH   5  12
ATOM     12  C5  UNK     1      54.979  -1.199   4.647  1.00  0.00    -0.002 A 
ATOM     13  C12 UNK     1      55.697  -0.129   5.187  1.00  0.00     0.014 A 
ATOM     14  C14 UNK     1      55.811   0.012   6.570  1.00  0.00     0.001 A 
ATOM     15  C15 UNK     1      55.207  -0.916   7.418  1.00  0.00     0.000 A 
ATOM     16  C13 UNK     1      54.489  -1.986   6.882  1.00  0.00     0.001 A 
ATOM     17  C11 UNK     1      54.375  -2.127   5.500  1.00  0.00     0.014 A 
ENDBRANCH   5  12
BRANCH  10  18
ATOM     18  O4  UNK     1      58.408  -0.658  -1.598  1.00  0.00    -0.361 OA
ATOM     19  H10 UNK     1      59.064  -1.351  -1.413  1.00  0.00     0.217 HD
ENDBRANCH  10  18
BRANCH   7  20
ATOM     20  O2  UNK     1      53.872  -2.062  -1.736  1.00  0.00    -0.360 OA
ATOM     21  H9  UNK     1      53.434  -1.293  -2.130  1.00  0.00     0.217 HD
ENDBRANCH   7  20
TORSDOF 3
ENDMDL
MODEL 17
REMARK VINA RESULT:      -5.7     14.221     16.158
REMARK  3 active torsions:
REMARK  status: ('A' for Active; 'I' for Inactive)
REMARK    1  A    between atoms: O2_2  and  C6_10 
REMARK    2  A    between atoms: O4_4  and  C9_13 
REMARK    3  A    between atoms: C3_7  and  C5_9 
ROOT
ATOM      1  O1  UNK     1      42.176   1.136   9.478  1.00  0.00    -0.309 OA
ATOM      2  O3  UNK     1      39.049   1.050   6.868  1.00  0.00    -0.287 OA
ATOM      3  C1  UNK     1      40.456  -0.148   8.342  1.00  0.00     0.081 A 
ATOM      4  C2  UNK     1      41.530  -0.048   9.223  1.00  0.00     0.095 A 
ATOM      5  C3  UNK     1      41.743   2.279   8.824  1.00  0.00     0.090 A 
ATOM      6  C4  UNK     1      39.988   1.064   7.652  1.00  0.00     0.190 A 
ATOM      7  C6  UNK     1      39.836  -1.380   8.120  1.00  0.00     0.085 A 
ATOM      8  C7  UNK     1      40.717   2.312   7.959  1.00  0.00     0.094 A 
ATOM      9  C8  UNK     1      41.993  -1.182   9.891  1.00  0.00     0.075 A 
ATOM     10  C9  UNK     1      41.377  -2.415   9.672  1.00  0.00     0.071 A 
ATOM     11  C10 UNK     1      40.300  -2.513   8.789  1.00  0.00     0.074 A 
ENDROOT
BRANCH   5  12
ATOM     12  C5  UNK     1      42.501   3.496   9.176  1.00  0.00    -0.002 A 
ATOM     13  C12 UNK     1      41.891   4.514   9.913  1.00  0.00     0.014 A 
ATOM     14  C14 UNK     1      42.606   5.665  10.245  1.00  0.00     0.001 A 
ATOM     15  C15 UNK     1      43.935   5.801   9.842  1.00  0.00     0.000 A 
ATOM     16  C13 UNK     1      44.547   4.786   9.106  1.00  0.00     0.001 A 
ATOM     17  C11 UNK     1      43.832   3.636   8.774  1.00  0.00     0.014 A 
ENDBRANCH   5  12
BRANCH  10  18
ATOM     18  O4  UNK     1      41.825  -3.523  10.324  1.00  0.00    -0.361 OA
ATOM     19  H10 UNK     1      42.759  -3.394  10.560  1.00  0.00     0.217 HD
ENDBRANCH  10  18
BRANCH   7  20
ATOM     20  O2  UNK     1      38.783  -1.529   7.269  1.00  0.00    -0.360 OA
ATOM     21  H9  UNK     1      39.040  -1.293   6.365  1.00  0.00     0.217 HD
ENDBRANCH   7  20
TORSDOF 3
ENDMDL
