MODEL 1
REMARK VINA RESULT:      -8.2      0.000      0.000
REMARK  3 active torsions:
REMARK  status: ('A' for Active; 'I' for Inactive)
REMARK    1  A    between atoms: O2_2  and  C6_10 
REMARK    2  A    between atoms: O4_4  and  C9_13 
REMARK    3  A    between atoms: C3_7  and  C5_9 
ROOT
ATOM      1  O1  UNK     1      40.222  14.470  -0.008  1.00  0.00    -0.309 OA
ATOM      2  O3  UNK     1      41.887  11.550  -2.310  1.00  0.00    -0.287 OA
ATOM      3  C1  UNK     1      40.988  12.175  -0.215  1.00  0.00     0.081 A 
ATOM      4  C2  UNK     1      40.423  13.218   0.516  1.00  0.00     0.095 A 
ATOM      5  C3  UNK     1      40.605  14.708  -1.318  1.00  0.00     0.090 A 
ATOM      6  C4  UNK     1      41.387  12.420  -1.609  1.00  0.00     0.190 A 
ATOM      7  C6  UNK     1      41.169  10.919   0.369  1.00  0.00     0.085 A 
ATOM      8  C7  UNK     1      41.153  13.784  -2.125  1.00  0.00     0.094 A 
ATOM      9  C8  UNK     1      40.033  13.011   1.839  1.00  0.00     0.075 A 
ATOM     10  C9  UNK     1      40.212  11.758   2.427  1.00  0.00     0.071 A 
ATOM     11  C10 UNK     1      40.778  10.715   1.693  1.00  0.00     0.074 A 
ENDROOT
BRANCH   5  12
ATOM     12  C5  UNK     1      40.339  16.084  -1.782  1.00  0.00    -0.002 A 
ATOM     13  C12 UNK     1      40.652  16.455  -3.093  1.00  0.00     0.014 A 
ATOM     14  C14 UNK     1      40.401  17.755  -3.532  1.00  0.00     0.001 A 
ATOM     15  C15 UNK     1      39.835  18.688  -2.662  1.00  0.00     0.000 A 
ATOM     16  C13 UNK     1      39.522  18.321  -1.353  1.00  0.00     0.001 A 
ATOM     17  C11 UNK     1      39.773  17.021  -0.915  1.00  0.00     0.014 A 
ENDBRANCH   5  12
BRANCH  10  18
ATOM     18  O4  UNK     1      39.832  11.553   3.719  1.00  0.00    -0.361 OA
ATOM     19  H10 UNK     1      39.373  12.347   4.042  1.00  0.00     0.217 HD
ENDBRANCH  10  18
BRANCH   7  20
ATOM     20  O2  UNK     1      41.715   9.868  -0.303  1.00  0.00    -0.360 OA
ATOM     21  H9  UNK     1      41.890   9.131   0.302  1.00  0.00     0.217 HD
ENDBRANCH   7  20
TORSDOF 3
ENDMDL
MODEL 2
REMARK VINA RESULT:      -7.9      2.427      6.381
REMARK  3 active torsions:
REMARK  status: ('A' for Active; 'I' for Inactive)
REMARK    1  A    between atoms: O2_2  and  C6_10 
REMARK    2  A    between atoms: O4_4  and  C9_13 
REMARK    3  A    between atoms: C3_7  and  C5_9 
ROOT
ATOM      1  O1  UNK     1      39.763  15.632  -0.262  1.00  0.00    -0.309 OA
ATOM      2  O3  UNK     1      40.974  17.239  -3.805  1.00  0.00    -0.287 OA
ATOM      3  C1  UNK     1      39.884  17.561  -1.733  1.00  0.00     0.081 A 
ATOM      4  C2  UNK     1      39.500  16.949  -0.541  1.00  0.00     0.095 A 
ATOM      5  C3  UNK     1      40.435  14.877  -1.212  1.00  0.00     0.090 A 
ATOM      6  C4  UNK     1      40.605  16.767  -2.739  1.00  0.00     0.190 A 
ATOM      7  C6  UNK     1      39.589  18.907  -1.963  1.00  0.00     0.085 A 
ATOM      8  C7  UNK     1      40.861  15.354  -2.392  1.00  0.00     0.094 A 
ATOM      9  C8  UNK     1      38.817  17.681   0.430  1.00  0.00     0.075 A 
ATOM     10  C9  UNK     1      38.520  19.026   0.204  1.00  0.00     0.071 A 
ATOM     11  C10 UNK     1      38.906  19.637  -0.990  1.00  0.00     0.074 A 
ENDROOT
BRANCH   5  12
ATOM     12  C5  UNK     1      40.672  13.477  -0.808  1.00  0.00    -0.002 A 
ATOM     13  C12 UNK     1      40.184  13.007   0.414  1.00  0.00     0.014 A 
ATOM     14  C14 UNK     1      40.408  11.684   0.797  1.00  0.00     0.001 A 
ATOM     15  C15 UNK     1      41.120  10.827  -0.042  1.00  0.00     0.000 A 
ATOM     16  C13 UNK     1      41.608  11.293  -1.263  1.00  0.00     0.001 A 
ATOM     17  C11 UNK     1      41.384  12.615  -1.646  1.00  0.00     0.014 A 
ENDBRANCH   5  12
BRANCH  10  18
ATOM     18  O4  UNK     1      37.854  19.743   1.151  1.00  0.00    -0.361 OA
ATOM     19  H10 UNK     1      37.712  20.646   0.820  1.00  0.00     0.217 HD
ENDBRANCH  10  18
BRANCH   7  20
ATOM     20  O2  UNK     1      39.944  19.550  -3.110  1.00  0.00    -0.360 OA
ATOM     21  H9  UNK     1      40.451  18.960  -3.688  1.00  0.00     0.217 HD
ENDBRANCH   7  20
TORSDOF 3
ENDMDL
MODEL 3
REMARK VINA RESULT:      -7.8      2.431      6.289
REMARK  3 active torsions:
REMARK  status: ('A' for Active; 'I' for Inactive)
REMARK    1  A    between atoms: O2_2  and  C6_10 
REMARK    2  A    between atoms: O4_4  and  C9_13 
REMARK    3  A    between atoms: C3_7  and  C5_9 
ROOT
ATOM      1  O1  UNK     1      39.755  15.641  -0.255  1.00  0.00    -0.309 OA
ATOM      2  O3  UNK     1      40.968  17.250  -3.796  1.00  0.00    -0.287 OA
ATOM      3  C1  UNK     1      39.878  17.571  -1.724  1.00  0.00     0.081 A 
ATOM      4  C2  UNK     1      39.493  16.959  -0.533  1.00  0.00     0.095 A 
ATOM      5  C3  UNK     1      40.426  14.886  -1.204  1.00  0.00     0.090 A 
ATOM      6  C4  UNK     1      40.598  16.777  -2.730  1.00  0.00     0.190 A 
ATOM      7  C6  UNK     1      39.585  18.918  -1.953  1.00  0.00     0.085 A 
ATOM      8  C7  UNK     1      40.854  15.363  -2.385  1.00  0.00     0.094 A 
ATOM      9  C8  UNK     1      38.810  17.691   0.439  1.00  0.00     0.075 A 
ATOM     10  C9  UNK     1      38.514  19.036   0.214  1.00  0.00     0.071 A 
ATOM     11  C10 UNK     1      38.902  19.647  -0.980  1.00  0.00     0.074 A 
ENDROOT
BRANCH   5  12
ATOM     12  C5  UNK     1      40.661  13.486  -0.802  1.00  0.00    -0.002 A 
ATOM     13  C12 UNK     1      41.384  12.628  -1.636  1.00  0.00     0.014 A 
ATOM     14  C14 UNK     1      41.607  11.304  -1.256  1.00  0.00     0.001 A 
ATOM     15  C15 UNK     1      41.108  10.834  -0.041  1.00  0.00     0.000 A 
ATOM     16  C13 UNK     1      40.387  11.687   0.794  1.00  0.00     0.001 A 
ATOM     17  C11 UNK     1      40.164  13.011   0.414  1.00  0.00     0.014 A 
ENDBRANCH   5  12
BRANCH  10  18
ATOM     18  O4  UNK     1      37.849  19.753   1.161  1.00  0.00    -0.361 OA
ATOM     19  H10 UNK     1      37.970  19.323   2.024  1.00  0.00     0.217 HD
ENDBRANCH  10  18
BRANCH   7  20
ATOM     20  O2  UNK     1      39.940  19.561  -3.100  1.00  0.00    -0.360 OA
ATOM     21  H9  UNK     1      39.417  19.237  -3.848  1.00  0.00     0.217 HD
ENDBRANCH   7  20
TORSDOF 3
ENDMDL
MODEL 4
REMARK VINA RESULT:      -7.6      2.622      4.346
REMARK  3 active torsions:
REMARK  status: ('A' for Active; 'I' for Inactive)
REMARK    1  A    between atoms: O2_2  and  C6_10 
REMARK    2  A    between atoms: O4_4  and  C9_13 
REMARK    3  A    between atoms: C3_7  and  C5_9 
ROOT
ATOM      1  O1  UNK     1      40.340  17.001  -1.146  1.00  0.00    -0.309 OA
ATOM      2  O3  UNK     1      36.870  14.918  -0.675  1.00  0.00    -0.287 OA
ATOM      3  C1  UNK     1      39.187  14.863  -1.138  1.00  0.00     0.081 A 
ATOM      4  C2  UNK     1      40.337  15.635  -1.284  1.00  0.00     0.095 A 
ATOM      5  C3  UNK     1      39.143  17.637  -0.855  1.00  0.00     0.090 A 
ATOM      6  C4  UNK     1      37.917  15.533  -0.820  1.00  0.00     0.190 A 
ATOM      7  C6  UNK     1      39.243  13.475  -1.290  1.00  0.00     0.085 A 
ATOM      8  C7  UNK     1      37.972  17.004  -0.685  1.00  0.00     0.094 A 
ATOM      9  C8  UNK     1      41.555  15.024  -1.583  1.00  0.00     0.075 A 
ATOM     10  C9  UNK     1      41.616  13.638  -1.736  1.00  0.00     0.071 A 
ATOM     11  C10 UNK     1      40.462  12.866  -1.589  1.00  0.00     0.074 A 
ENDROOT
BRANCH   5  12
ATOM     12  C5  UNK     1      39.260  19.103  -0.722  1.00  0.00    -0.002 A 
ATOM     13  C12 UNK     1      38.649  19.760   0.349  1.00  0.00     0.014 A 
ATOM     14  C14 UNK     1      38.758  21.146   0.476  1.00  0.00     0.001 A 
ATOM     15  C15 UNK     1      39.479  21.878  -0.467  1.00  0.00     0.000 A 
ATOM     16  C13 UNK     1      40.090  21.224  -1.538  1.00  0.00     0.001 A 
ATOM     17  C11 UNK     1      39.981  19.840  -1.665  1.00  0.00     0.014 A 
ENDBRANCH   5  12
BRANCH  10  18
ATOM     18  O4  UNK     1      42.803  13.038  -2.027  1.00  0.00    -0.361 OA
ATOM     19  H10 UNK     1      43.200  12.710  -1.203  1.00  0.00     0.217 HD
ENDBRANCH  10  18
BRANCH   7  20
ATOM     20  O2  UNK     1      38.148  12.677  -1.156  1.00  0.00    -0.360 OA
ATOM     21  H9  UNK     1      37.698  12.856  -0.316  1.00  0.00     0.217 HD
ENDBRANCH   7  20
TORSDOF 3
ENDMDL
MODEL 5
REMARK VINA RESULT:      -7.2      2.416      6.999
REMARK  3 active torsions:
REMARK  status: ('A' for Active; 'I' for Inactive)
REMARK    1  A    between atoms: O2_2  and  C6_10 
REMARK    2  A    between atoms: O4_4  and  C9_13 
REMARK    3  A    between atoms: C3_7  and  C5_9 
ROOT
ATOM      1  O1  UNK     1      40.735  15.122  -2.126  1.00  0.00    -0.309 OA
ATOM      2  O3  UNK     1      38.935  17.823   0.338  1.00  0.00    -0.287 OA
ATOM      3  C1  UNK     1      39.922  17.382  -1.764  1.00  0.00     0.081 A 
ATOM      4  C2  UNK     1      40.530  16.410  -2.555  1.00  0.00     0.095 A 
ATOM      5  C3  UNK     1      40.326  14.779  -0.846  1.00  0.00     0.090 A 
ATOM      6  C4  UNK     1      39.478  17.021  -0.410  1.00  0.00     0.190 A 
ATOM      7  C6  UNK     1      39.739  18.678  -2.253  1.00  0.00     0.085 A 
ATOM      8  C7  UNK     1      39.724  15.624   0.006  1.00  0.00     0.094 A 
ATOM      9  C8  UNK     1      40.959  16.726  -3.844  1.00  0.00     0.075 A 
ATOM     10  C9  UNK     1      40.778  18.019  -4.337  1.00  0.00     0.071 A 
ATOM     11  C10 UNK     1      40.169  18.992  -3.543  1.00  0.00     0.074 A 
ENDROOT
BRANCH   5  12
ATOM     12  C5  UNK     1      40.587  13.371  -0.489  1.00  0.00    -0.002 A 
ATOM     13  C12 UNK     1      40.192  12.879   0.758  1.00  0.00     0.014 A 
ATOM     14  C14 UNK     1      40.440  11.548   1.096  1.00  0.00     0.001 A 
ATOM     15  C15 UNK     1      41.082  10.706   0.190  1.00  0.00     0.000 A 
ATOM     16  C13 UNK     1      41.479  11.194  -1.056  1.00  0.00     0.001 A 
ATOM     17  C11 UNK     1      41.231  12.524  -1.394  1.00  0.00     0.014 A 
ENDBRANCH   5  12
BRANCH  10  18
ATOM     18  O4  UNK     1      41.195  18.331  -5.595  1.00  0.00    -0.361 OA
ATOM     19  H10 UNK     1      42.097  18.691  -5.548  1.00  0.00     0.217 HD
ENDBRANCH  10  18
BRANCH   7  20
ATOM     20  O2  UNK     1      39.150  19.663  -1.520  1.00  0.00    -0.360 OA
ATOM     21  H9  UNK     1      39.817  20.162  -1.024  1.00  0.00     0.217 HD
ENDBRANCH   7  20
TORSDOF 3
ENDMDL
MODEL 6
REMARK VINA RESULT:      -6.7      1.667      2.546
REMARK  3 active torsions:
REMARK  status: ('A' for Active; 'I' for Inactive)
REMARK    1  A    between atoms: O2_2  and  C6_10 
REMARK    2  A    between atoms: O4_4  and  C9_13 
REMARK    3  A    between atoms: C3_7  and  C5_9 
ROOT
ATOM      1  O1  UNK     1      39.438  15.308  -0.126  1.00  0.00    -0.309 OA
ATOM      2  O3  UNK     1      42.462  14.762  -2.801  1.00  0.00    -0.287 OA
ATOM      3  C1  UNK     1      40.982  13.795  -1.233  1.00  0.00     0.081 A 
ATOM      4  C2  UNK     1      39.948  14.051  -0.335  1.00  0.00     0.095 A 
ATOM      5  C3  UNK     1      39.981  16.368  -0.835  1.00  0.00     0.090 A 
ATOM      6  C4  UNK     1      41.555  14.915  -1.994  1.00  0.00     0.190 A 
ATOM      7  C6  UNK     1      41.462  12.494  -1.406  1.00  0.00     0.085 A 
ATOM      8  C7  UNK     1      40.974  16.247  -1.732  1.00  0.00     0.094 A 
ATOM      9  C8  UNK     1      39.385  13.006   0.398  1.00  0.00     0.075 A 
ATOM     10  C9  UNK     1      39.862  11.706   0.229  1.00  0.00     0.071 A 
ATOM     11  C10 UNK     1      40.897  11.451  -0.672  1.00  0.00     0.074 A 
ENDROOT
BRANCH   5  12
ATOM     12  C5  UNK     1      39.356  17.672  -0.540  1.00  0.00    -0.002 A 
ATOM     13  C12 UNK     1      39.568  18.760  -1.390  1.00  0.00     0.014 A 
ATOM     14  C14 UNK     1      38.978  19.993  -1.111  1.00  0.00     0.001 A 
ATOM     15  C15 UNK     1      38.173  20.142   0.018  1.00  0.00     0.000 A 
ATOM     16  C13 UNK     1      37.959  19.057   0.869  1.00  0.00     0.001 A 
ATOM     17  C11 UNK     1      38.549  17.825   0.591  1.00  0.00     0.014 A 
ENDBRANCH   5  12
BRANCH  10  18
ATOM     18  O4  UNK     1      39.314  10.683   0.942  1.00  0.00    -0.361 OA
ATOM     19  H10 UNK     1      40.009  10.037   1.152  1.00  0.00     0.217 HD
ENDBRANCH  10  18
BRANCH   7  20
ATOM     20  O2  UNK     1      42.469  12.192  -2.271  1.00  0.00    -0.360 OA
ATOM     21  H9  UNK     1      43.161  11.683  -1.823  1.00  0.00     0.217 HD
ENDBRANCH   7  20
TORSDOF 3
ENDMDL
MODEL 7
REMARK VINA RESULT:      -6.5      3.343      5.670
REMARK  3 active torsions:
REMARK  status: ('A' for Active; 'I' for Inactive)
REMARK    1  A    between atoms: O2_2  and  C6_10 
REMARK    2  A    between atoms: O4_4  and  C9_13 
REMARK    3  A    between atoms: C3_7  and  C5_9 
ROOT
ATOM      1  O1  UNK     1      39.502  18.721  -0.719  1.00  0.00    -0.309 OA
ATOM      2  O3  UNK     1      40.746  18.345  -4.581  1.00  0.00    -0.287 OA
ATOM      3  C1  UNK     1      39.925  17.287  -2.633  1.00  0.00     0.081 A 
ATOM      4  C2  UNK     1      39.511  17.486  -1.318  1.00  0.00     0.095 A 
ATOM      5  C3  UNK     1      39.930  19.815  -1.455  1.00  0.00     0.090 A 
ATOM      6  C4  UNK     1      40.372  18.446  -3.420  1.00  0.00     0.190 A 
ATOM      7  C6  UNK     1      39.914  16.007  -3.192  1.00  0.00     0.085 A 
ATOM      8  C7  UNK     1      40.346  19.752  -2.731  1.00  0.00     0.094 A 
ATOM      9  C8  UNK     1      39.081  16.404  -0.550  1.00  0.00     0.075 A 
ATOM     10  C9  UNK     1      39.069  15.123  -1.104  1.00  0.00     0.071 A 
ATOM     11  C10 UNK     1      39.483  14.926  -2.422  1.00  0.00     0.074 A 
ENDROOT
BRANCH   5  12
ATOM     12  C5  UNK     1      39.873  21.094  -0.719  1.00  0.00    -0.002 A 
ATOM     13  C12 UNK     1      40.420  22.251  -1.281  1.00  0.00     0.014 A 
ATOM     14  C14 UNK     1      40.367  23.460  -0.585  1.00  0.00     0.001 A 
ATOM     15  C15 UNK     1      39.767  23.515   0.672  1.00  0.00     0.000 A 
ATOM     16  C13 UNK     1      39.220  22.361   1.235  1.00  0.00     0.001 A 
ATOM     17  C11 UNK     1      39.273  21.153   0.541  1.00  0.00     0.014 A 
ENDBRANCH   5  12
BRANCH  10  18
ATOM     18  O4  UNK     1      38.648  14.064  -0.357  1.00  0.00    -0.361 OA
ATOM     19  H10 UNK     1      38.514  14.359   0.560  1.00  0.00     0.217 HD
ENDBRANCH  10  18
BRANCH   7  20
ATOM     20  O2  UNK     1      40.308  15.760  -4.472  1.00  0.00    -0.360 OA
ATOM     21  H9  UNK     1      40.642  16.570  -4.886  1.00  0.00     0.217 HD
ENDBRANCH   7  20
TORSDOF 3
ENDMDL
MODEL 8
REMARK VINA RESULT:      -5.9      4.558      7.037
REMARK  3 active torsions:
REMARK  status: ('A' for Active; 'I' for Inactive)
REMARK    1  A    between atoms: O2_2  and  C6_10 
REMARK    2  A    between atoms: O4_4  and  C9_13 
REMARK    3  A    between atoms: C3_7  and  C5_9 
ROOT
ATOM      1  O1  UNK     1      40.246  20.119  -2.471  1.00  0.00    -0.309 OA
ATOM      2  O3  UNK     1      39.240  16.622  -0.639  1.00  0.00    -0.287 OA
ATOM      3  C1  UNK     1      39.963  17.711  -2.608  1.00  0.00     0.081 A 
ATOM      4  C2  UNK     1      40.295  18.941  -3.172  1.00  0.00     0.095 A 
ATOM      5  C3  UNK     1      39.842  20.083  -1.145  1.00  0.00     0.090 A 
ATOM      6  C4  UNK     1      39.543  17.666  -1.199  1.00  0.00     0.190 A 
ATOM      7  C6  UNK     1      40.032  16.542  -3.369  1.00  0.00     0.085 A 
ATOM      8  C7  UNK     1      39.504  18.961  -0.489  1.00  0.00     0.094 A 
ATOM      9  C8  UNK     1      40.699  19.010  -4.506  1.00  0.00     0.075 A 
ATOM     10  C9  UNK     1      40.768  17.845  -5.271  1.00  0.00     0.071 A 
ATOM     11  C10 UNK     1      40.436  16.614  -4.703  1.00  0.00     0.074 A 
ENDROOT
BRANCH   5  12
ATOM     12  C5  UNK     1      39.831  21.403  -0.484  1.00  0.00    -0.002 A 
ATOM     13  C12 UNK     1      40.349  22.521  -1.143  1.00  0.00     0.014 A 
ATOM     14  C14 UNK     1      40.340  23.769  -0.518  1.00  0.00     0.001 A 
ATOM     15  C15 UNK     1      39.813  23.902   0.766  1.00  0.00     0.000 A 
ATOM     16  C13 UNK     1      39.295  22.787   1.427  1.00  0.00     0.001 A 
ATOM     17  C11 UNK     1      39.304  21.540   0.802  1.00  0.00     0.014 A 
ENDBRANCH   5  12
BRANCH  10  18
ATOM     18  O4  UNK     1      41.164  17.909  -6.572  1.00  0.00    -0.361 OA
ATOM     19  H10 UNK     1      40.841  17.120  -7.039  1.00  0.00     0.217 HD
ENDBRANCH  10  18
BRANCH   7  20
ATOM     20  O2  UNK     1      39.719  15.317  -2.864  1.00  0.00    -0.360 OA
ATOM     21  H9  UNK     1      38.764  15.159  -2.921  1.00  0.00     0.217 HD
ENDBRANCH   7  20
TORSDOF 3
ENDMDL
MODEL 9
REMARK VINA RESULT:      -5.6      9.342     10.802
REMARK  3 active torsions:
REMARK  status: ('A' for Active; 'I' for Inactive)
REMARK    1  A    between atoms: O2_2  and  C6_10 
REMARK    2  A    between atoms: O4_4  and  C9_13 
REMARK    3  A    between atoms: C3_7  and  C5_9 
ROOT
ATOM      1  O1  UNK     1      46.222  11.488  -7.614  1.00  0.00    -0.309 OA
ATOM      2  O3  UNK     1      48.213   8.123  -8.763  1.00  0.00    -0.287 OA
ATOM      3  C1  UNK     1      46.200   9.361  -8.788  1.00  0.00     0.081 A 
ATOM      4  C2  UNK     1      45.579  10.534  -8.363  1.00  0.00     0.095 A 
ATOM      5  C3  UNK     1      47.544  11.268  -7.259  1.00  0.00     0.090 A 
ATOM      6  C4  UNK     1      47.605   9.129  -8.422  1.00  0.00     0.190 A 
ATOM      7  C6  UNK     1      45.496   8.425  -9.549  1.00  0.00     0.085 A 
ATOM      8  C7  UNK     1      48.251  10.183  -7.613  1.00  0.00     0.094 A 
ATOM      9  C8  UNK     1      44.247  10.780  -8.698  1.00  0.00     0.075 A 
ATOM     10  C9  UNK     1      43.540   9.848  -9.458  1.00  0.00     0.071 A 
ATOM     11  C10 UNK     1      44.164   8.673  -9.883  1.00  0.00     0.074 A 
ENDROOT
BRANCH   5  12
ATOM     12  C5  UNK     1      48.141  12.357  -6.461  1.00  0.00    -0.002 A 
ATOM     13  C12 UNK     1      47.751  12.547  -5.133  1.00  0.00     0.014 A 
ATOM     14  C14 UNK     1      48.314  13.577  -4.377  1.00  0.00     0.001 A 
ATOM     15  C15 UNK     1      49.269  14.418  -4.947  1.00  0.00     0.000 A 
ATOM     16  C13 UNK     1      49.661  14.231  -6.273  1.00  0.00     0.001 A 
ATOM     17  C11 UNK     1      49.098  13.202  -7.028  1.00  0.00     0.014 A 
ENDBRANCH   5  12
BRANCH  10  18
ATOM     18  O4  UNK     1      42.240  10.085  -9.788  1.00  0.00    -0.361 OA
ATOM     19  H10 UNK     1      41.666   9.669  -9.123  1.00  0.00     0.217 HD
ENDBRANCH  10  18
BRANCH   7  20
ATOM     20  O2  UNK     1      46.057   7.265  -9.989  1.00  0.00    -0.360 OA
ATOM     21  H9  UNK     1      47.017   7.365 -10.079  1.00  0.00     0.217 HD
ENDBRANCH   7  20
TORSDOF 3
ENDMDL
