MODEL 1
REMARK VINA RESULT:      -6.0      0.000      0.000
REMARK  3 active torsions:
REMARK  status: ('A' for Active; 'I' for Inactive)
REMARK    1  A    between atoms: O2_2  and  C6_10 
REMARK    2  A    between atoms: O4_4  and  C9_13 
REMARK    3  A    between atoms: C3_7  and  C5_9 
ROOT
ATOM      1  O1  UNK     1      38.796  22.242  10.999  1.00  0.00    -0.309 OA
ATOM      2  O3  UNK     1      37.507  19.834  14.023  1.00  0.00    -0.287 OA
ATOM      3  C1  UNK     1      39.139  20.265  12.369  1.00  0.00     0.081 A 
ATOM      4  C2  UNK     1      39.523  21.131  11.347  1.00  0.00     0.095 A 
ATOM      5  C3  UNK     1      37.625  22.508  11.692  1.00  0.00     0.090 A 
ATOM      6  C4  UNK     1      37.903  20.549  13.113  1.00  0.00     0.190 A 
ATOM      7  C6  UNK     1      39.919  19.149  12.680  1.00  0.00     0.085 A 
ATOM      8  C7  UNK     1      37.155  21.754  12.699  1.00  0.00     0.094 A 
ATOM      9  C8  UNK     1      40.692  20.886  10.627  1.00  0.00     0.075 A 
ATOM     10  C9  UNK     1      41.474  19.771  10.934  1.00  0.00     0.071 A 
ATOM     11  C10 UNK     1      41.088  18.906  11.958  1.00  0.00     0.074 A 
ENDROOT
BRANCH   5  12
ATOM     12  C5  UNK     1      36.926  23.728  11.244  1.00  0.00    -0.002 A 
ATOM     13  C12 UNK     1      37.328  24.980  11.715  1.00  0.00     0.014 A 
ATOM     14  C14 UNK     1      36.666  26.134  11.291  1.00  0.00     0.001 A 
ATOM     15  C15 UNK     1      35.602  26.039  10.395  1.00  0.00     0.000 A 
ATOM     16  C13 UNK     1      35.198  24.790   9.923  1.00  0.00     0.001 A 
ATOM     17  C11 UNK     1      35.859  23.637  10.346  1.00  0.00     0.014 A 
ENDBRANCH   5  12
BRANCH  10  18
ATOM     18  O4  UNK     1      42.617  19.529  10.234  1.00  0.00    -0.361 OA
ATOM     19  H10 UNK     1      43.288  19.173  10.840  1.00  0.00     0.217 HD
ENDBRANCH  10  18
BRANCH   7  20
ATOM     20  O2  UNK     1      39.587  18.274  13.669  1.00  0.00    -0.360 OA
ATOM     21  H9  UNK     1      39.202  18.745  14.424  1.00  0.00     0.217 HD
ENDBRANCH   7  20
TORSDOF 3
ENDMDL
MODEL 2
REMARK VINA RESULT:      -5.9      3.129      5.388
REMARK  3 active torsions:
REMARK  status: ('A' for Active; 'I' for Inactive)
REMARK    1  A    between atoms: O2_2  and  C6_10 
REMARK    2  A    between atoms: O4_4  and  C9_13 
REMARK    3  A    between atoms: C3_7  and  C5_9 
ROOT
ATOM      1  O1  UNK     1      42.662  20.867  10.635  1.00  0.00    -0.309 OA
ATOM      2  O3  UNK     1      43.679  17.189  12.062  1.00  0.00    -0.287 OA
ATOM      3  C1  UNK     1      44.399  19.256  11.171  1.00  0.00     0.081 A 
ATOM      4  C2  UNK     1      43.983  20.498  10.696  1.00  0.00     0.095 A 
ATOM      5  C3  UNK     1      41.703  19.961  11.059  1.00  0.00     0.090 A 
ATOM      6  C4  UNK     1      43.385  18.295  11.631  1.00  0.00     0.190 A 
ATOM      7  C6  UNK     1      45.757  18.933  11.210  1.00  0.00     0.085 A 
ATOM      8  C7  UNK     1      41.978  18.739  11.543  1.00  0.00     0.094 A 
ATOM      9  C8  UNK     1      44.924  21.428  10.256  1.00  0.00     0.075 A 
ATOM     10  C9  UNK     1      46.283  21.110  10.292  1.00  0.00     0.071 A 
ATOM     11  C10 UNK     1      46.698  19.865  10.770  1.00  0.00     0.074 A 
ENDROOT
BRANCH   5  12
ATOM     12  C5  UNK     1      40.318  20.462  10.958  1.00  0.00    -0.002 A 
ATOM     13  C12 UNK     1      39.427  20.281  12.020  1.00  0.00     0.014 A 
ATOM     14  C14 UNK     1      38.117  20.753  11.924  1.00  0.00     0.001 A 
ATOM     15  C15 UNK     1      37.695  21.408  10.768  1.00  0.00     0.000 A 
ATOM     16  C13 UNK     1      38.581  21.590   9.706  1.00  0.00     0.001 A 
ATOM     17  C11 UNK     1      39.890  21.118   9.801  1.00  0.00     0.014 A 
ENDBRANCH   5  12
BRANCH  10  18
ATOM     18  O4  UNK     1      47.205  22.016   9.865  1.00  0.00    -0.361 OA
ATOM     19  H10 UNK     1      46.810  22.904   9.891  1.00  0.00     0.217 HD
ENDBRANCH  10  18
BRANCH   7  20
ATOM     20  O2  UNK     1      46.214  17.734  11.666  1.00  0.00    -0.360 OA
ATOM     21  H9  UNK     1      46.412  17.142  10.925  1.00  0.00     0.217 HD
ENDBRANCH   7  20
TORSDOF 3
ENDMDL
MODEL 3
REMARK VINA RESULT:      -5.9      3.133      5.419
REMARK  3 active torsions:
REMARK  status: ('A' for Active; 'I' for Inactive)
REMARK    1  A    between atoms: O2_2  and  C6_10 
REMARK    2  A    between atoms: O4_4  and  C9_13 
REMARK    3  A    between atoms: C3_7  and  C5_9 
ROOT
ATOM      1  O1  UNK     1      42.669  20.868  10.629  1.00  0.00    -0.309 OA
ATOM      2  O3  UNK     1      43.689  17.193  12.060  1.00  0.00    -0.287 OA
ATOM      3  C1  UNK     1      44.408  19.259  11.166  1.00  0.00     0.081 A 
ATOM      4  C2  UNK     1      43.990  20.500  10.689  1.00  0.00     0.095 A 
ATOM      5  C3  UNK     1      41.711  19.962  11.055  1.00  0.00     0.090 A 
ATOM      6  C4  UNK     1      43.395  18.298  11.627  1.00  0.00     0.190 A 
ATOM      7  C6  UNK     1      45.766  18.937  11.204  1.00  0.00     0.085 A 
ATOM      8  C7  UNK     1      41.988  18.741  11.540  1.00  0.00     0.094 A 
ATOM      9  C8  UNK     1      44.931  21.430  10.247  1.00  0.00     0.075 A 
ATOM     10  C9  UNK     1      46.289  21.113  10.283  1.00  0.00     0.071 A 
ATOM     11  C10 UNK     1      46.705  19.869  10.761  1.00  0.00     0.074 A 
ENDROOT
BRANCH   5  12
ATOM     12  C5  UNK     1      40.325  20.462  10.954  1.00  0.00    -0.002 A 
ATOM     13  C12 UNK     1      39.896  21.109   9.793  1.00  0.00     0.014 A 
ATOM     14  C14 UNK     1      38.586  21.582   9.697  1.00  0.00     0.001 A 
ATOM     15  C15 UNK     1      37.703  21.408  10.762  1.00  0.00     0.000 A 
ATOM     16  C13 UNK     1      38.128  20.762  11.923  1.00  0.00     0.001 A 
ATOM     17  C11 UNK     1      39.437  20.290  12.019  1.00  0.00     0.014 A 
ENDBRANCH   5  12
BRANCH  10  18
ATOM     18  O4  UNK     1      47.210  22.019   9.853  1.00  0.00    -0.361 OA
ATOM     19  H10 UNK     1      47.098  22.844  10.354  1.00  0.00     0.217 HD
ENDBRANCH  10  18
BRANCH   7  20
ATOM     20  O2  UNK     1      46.224  17.739  11.661  1.00  0.00    -0.360 OA
ATOM     21  H9  UNK     1      47.193  17.729  11.676  1.00  0.00     0.217 HD
ENDBRANCH   7  20
TORSDOF 3
ENDMDL
MODEL 4
REMARK VINA RESULT:      -5.8      3.829      5.299
REMARK  3 active torsions:
REMARK  status: ('A' for Active; 'I' for Inactive)
REMARK    1  A    between atoms: O2_2  and  C6_10 
REMARK    2  A    between atoms: O4_4  and  C9_13 
REMARK    3  A    between atoms: C3_7  and  C5_9 
ROOT
ATOM      1  O1  UNK     1      41.556  22.069  12.254  1.00  0.00    -0.309 OA
ATOM      2  O3  UNK     1      44.102  19.381  10.553  1.00  0.00    -0.287 OA
ATOM      3  C1  UNK     1      42.168  19.752  11.860  1.00  0.00     0.081 A 
ATOM      4  C2  UNK     1      41.337  20.723  12.414  1.00  0.00     0.095 A 
ATOM      5  C3  UNK     1      42.657  22.476  11.516  1.00  0.00     0.090 A 
ATOM      6  C4  UNK     1      43.332  20.179  11.069  1.00  0.00     0.190 A 
ATOM      7  C6  UNK     1      41.897  18.395  12.055  1.00  0.00     0.085 A 
ATOM      8  C7  UNK     1      43.525  21.637  10.929  1.00  0.00     0.094 A 
ATOM      9  C8  UNK     1      40.226  20.345  13.167  1.00  0.00     0.075 A 
ATOM     10  C9  UNK     1      39.951  18.991  13.365  1.00  0.00     0.071 A 
ATOM     11  C10 UNK     1      40.785  18.019  12.809  1.00  0.00     0.074 A 
ENDROOT
BRANCH   5  12
ATOM     12  C5  UNK     1      42.794  23.941  11.402  1.00  0.00    -0.002 A 
ATOM     13  C12 UNK     1      43.611  24.494  10.411  1.00  0.00     0.014 A 
ATOM     14  C14 UNK     1      43.742  25.879  10.303  1.00  0.00     0.001 A 
ATOM     15  C15 UNK     1      43.056  26.715  11.184  1.00  0.00     0.000 A 
ATOM     16  C13 UNK     1      42.240  26.167  12.173  1.00  0.00     0.001 A 
ATOM     17  C11 UNK     1      42.109  24.783  12.282  1.00  0.00     0.014 A 
ENDBRANCH   5  12
BRANCH  10  18
ATOM     18  O4  UNK     1      38.866  18.618  14.099  1.00  0.00    -0.361 OA
ATOM     19  H10 UNK     1      38.156  18.345  13.494  1.00  0.00     0.217 HD
ENDBRANCH  10  18
BRANCH   7  20
ATOM     20  O2  UNK     1      42.678  17.408  11.535  1.00  0.00    -0.360 OA
ATOM     21  H9  UNK     1      42.313  16.537  11.752  1.00  0.00     0.217 HD
ENDBRANCH   7  20
TORSDOF 3
ENDMDL
MODEL 5
REMARK VINA RESULT:      -5.8      3.107      6.732
REMARK  3 active torsions:
REMARK  status: ('A' for Active; 'I' for Inactive)
REMARK    1  A    between atoms: O2_2  and  C6_10 
REMARK    2  A    between atoms: O4_4  and  C9_13 
REMARK    3  A    between atoms: C3_7  and  C5_9 
ROOT
ATOM      1  O1  UNK     1      36.455  23.831  10.514  1.00  0.00    -0.309 OA
ATOM      2  O3  UNK     1      34.297  22.816  13.817  1.00  0.00    -0.287 OA
ATOM      3  C1  UNK     1      34.456  24.131  11.860  1.00  0.00     0.081 A 
ATOM      4  C2  UNK     1      35.243  24.430  10.750  1.00  0.00     0.095 A 
ATOM      5  C3  UNK     1      36.917  22.893  11.424  1.00  0.00     0.090 A 
ATOM      6  C4  UNK     1      34.937  23.129  12.823  1.00  0.00     0.190 A 
ATOM      7  C6  UNK     1      33.230  24.772  12.050  1.00  0.00     0.085 A 
ATOM      8  C7  UNK     1      36.248  22.515  12.525  1.00  0.00     0.094 A 
ATOM      9  C8  UNK     1      34.809  25.375   9.820  1.00  0.00     0.075 A 
ATOM     10  C9  UNK     1      33.585  26.018  10.007  1.00  0.00     0.071 A 
ATOM     11  C10 UNK     1      32.797  25.717  11.119  1.00  0.00     0.074 A 
ENDROOT
BRANCH   5  12
ATOM     12  C5  UNK     1      38.225  22.306  11.071  1.00  0.00    -0.002 A 
ATOM     13  C12 UNK     1      38.352  21.511   9.928  1.00  0.00     0.014 A 
ATOM     14  C14 UNK     1      39.588  20.956   9.594  1.00  0.00     0.001 A 
ATOM     15  C15 UNK     1      40.700  21.195  10.401  1.00  0.00     0.000 A 
ATOM     16  C13 UNK     1      40.577  21.988  11.542  1.00  0.00     0.001 A 
ATOM     17  C11 UNK     1      39.342  22.543  11.876  1.00  0.00     0.014 A 
ENDBRANCH   5  12
BRANCH  10  18
ATOM     18  O4  UNK     1      33.157  26.940   9.100  1.00  0.00    -0.361 OA
ATOM     19  H10 UNK     1      32.577  27.578   9.549  1.00  0.00     0.217 HD
ENDBRANCH  10  18
BRANCH   7  20
ATOM     20  O2  UNK     1      32.424  24.514  13.117  1.00  0.00    -0.360 OA
ATOM     21  H9  UNK     1      31.499  24.448  12.836  1.00  0.00     0.217 HD
ENDBRANCH   7  20
TORSDOF 3
ENDMDL
MODEL 6
REMARK VINA RESULT:      -5.7      3.687      4.772
REMARK  3 active torsions:
REMARK  status: ('A' for Active; 'I' for Inactive)
REMARK    1  A    between atoms: O2_2  and  C6_10 
REMARK    2  A    between atoms: O4_4  and  C9_13 
REMARK    3  A    between atoms: C3_7  and  C5_9 
ROOT
ATOM      1  O1  UNK     1      43.310  21.712  11.549  1.00  0.00    -0.309 OA
ATOM      2  O3  UNK     1      39.512  20.439  12.294  1.00  0.00    -0.287 OA
ATOM      3  C1  UNK     1      41.794  19.878  12.038  1.00  0.00     0.081 A 
ATOM      4  C2  UNK     1      43.067  20.381  11.778  1.00  0.00     0.095 A 
ATOM      5  C3  UNK     1      42.239  22.592  11.569  1.00  0.00     0.090 A 
ATOM      6  C4  UNK     1      40.656  20.809  12.070  1.00  0.00     0.190 A 
ATOM      7  C6  UNK     1      41.605  18.513  12.265  1.00  0.00     0.085 A 
ATOM      8  C7  UNK     1      40.969  22.231  11.814  1.00  0.00     0.094 A 
ATOM      9  C8  UNK     1      44.163  19.519  11.745  1.00  0.00     0.075 A 
ATOM     10  C9  UNK     1      43.980  18.154  11.970  1.00  0.00     0.071 A 
ATOM     11  C10 UNK     1      42.703  17.653  12.230  1.00  0.00     0.074 A 
ENDROOT
BRANCH   5  12
ATOM     12  C5  UNK     1      42.611  23.997  11.317  1.00  0.00    -0.002 A 
ATOM     13  C12 UNK     1      43.415  24.324  10.221  1.00  0.00     0.014 A 
ATOM     14  C14 UNK     1      43.768  25.653   9.983  1.00  0.00     0.001 A 
ATOM     15  C15 UNK     1      43.319  26.659  10.838  1.00  0.00     0.000 A 
ATOM     16  C13 UNK     1      42.516  26.336  11.933  1.00  0.00     0.001 A 
ATOM     17  C11 UNK     1      42.163  25.008  12.171  1.00  0.00     0.014 A 
ENDBRANCH   5  12
BRANCH  10  18
ATOM     18  O4  UNK     1      45.048  17.310  11.939  1.00  0.00    -0.361 OA
ATOM     19  H10 UNK     1      44.773  16.469  11.538  1.00  0.00     0.217 HD
ENDBRANCH  10  18
BRANCH   7  20
ATOM     20  O2  UNK     1      40.381  17.974  12.523  1.00  0.00    -0.360 OA
ATOM     21  H9  UNK     1      40.357  17.598  13.416  1.00  0.00     0.217 HD
ENDBRANCH   7  20
TORSDOF 3
ENDMDL
MODEL 7
REMARK VINA RESULT:      -5.7      3.689      4.732
REMARK  3 active torsions:
REMARK  status: ('A' for Active; 'I' for Inactive)
REMARK    1  A    between atoms: O2_2  and  C6_10 
REMARK    2  A    between atoms: O4_4  and  C9_13 
REMARK    3  A    between atoms: C3_7  and  C5_9 
ROOT
ATOM      1  O1  UNK     1      43.309  21.711  11.573  1.00  0.00    -0.309 OA
ATOM      2  O3  UNK     1      39.512  20.426  12.302  1.00  0.00    -0.287 OA
ATOM      3  C1  UNK     1      41.796  19.872  12.052  1.00  0.00     0.081 A 
ATOM      4  C2  UNK     1      43.069  20.378  11.798  1.00  0.00     0.095 A 
ATOM      5  C3  UNK     1      42.236  22.588  11.592  1.00  0.00     0.090 A 
ATOM      6  C4  UNK     1      40.656  20.801  12.082  1.00  0.00     0.190 A 
ATOM      7  C6  UNK     1      41.610  18.506  12.274  1.00  0.00     0.085 A 
ATOM      8  C7  UNK     1      40.966  22.223  11.831  1.00  0.00     0.094 A 
ATOM      9  C8  UNK     1      44.168  19.519  11.765  1.00  0.00     0.075 A 
ATOM     10  C9  UNK     1      43.987  18.154  11.987  1.00  0.00     0.071 A 
ATOM     11  C10 UNK     1      42.711  17.649  12.241  1.00  0.00     0.074 A 
ENDROOT
BRANCH   5  12
ATOM     12  C5  UNK     1      42.606  23.995  11.345  1.00  0.00    -0.002 A 
ATOM     13  C12 UNK     1      42.138  25.003  12.192  1.00  0.00     0.014 A 
ATOM     14  C14 UNK     1      42.487  26.334  11.959  1.00  0.00     0.001 A 
ATOM     15  C15 UNK     1      43.306  26.661  10.878  1.00  0.00     0.000 A 
ATOM     16  C13 UNK     1      43.775  25.657  10.030  1.00  0.00     0.001 A 
ATOM     17  C11 UNK     1      43.426  24.327  10.263  1.00  0.00     0.014 A 
ENDBRANCH   5  12
BRANCH  10  18
ATOM     18  O4  UNK     1      45.057  17.312  11.957  1.00  0.00    -0.361 OA
ATOM     19  H10 UNK     1      45.053  16.768  12.762  1.00  0.00     0.217 HD
ENDBRANCH  10  18
BRANCH   7  20
ATOM     20  O2  UNK     1      40.387  17.963  12.527  1.00  0.00    -0.360 OA
ATOM     21  H9  UNK     1      39.683  18.543  12.198  1.00  0.00     0.217 HD
ENDBRANCH   7  20
TORSDOF 3
ENDMDL
MODEL 8
REMARK VINA RESULT:      -5.7      3.589      5.761
REMARK  3 active torsions:
REMARK  status: ('A' for Active; 'I' for Inactive)
REMARK    1  A    between atoms: O2_2  and  C6_10 
REMARK    2  A    between atoms: O4_4  and  C9_13 
REMARK    3  A    between atoms: C3_7  and  C5_9 
ROOT
ATOM      1  O1  UNK     1      42.711  20.999  10.790  1.00  0.00    -0.309 OA
ATOM      2  O3  UNK     1      44.683  24.552  11.085  1.00  0.00    -0.287 OA
ATOM      3  C1  UNK     1      44.819  22.198  10.920  1.00  0.00     0.081 A 
ATOM      4  C2  UNK     1      44.083  21.019  10.819  1.00  0.00     0.095 A 
ATOM      5  C3  UNK     1      42.031  22.204  10.872  1.00  0.00     0.090 A 
ATOM      6  C4  UNK     1      44.102  23.479  10.997  1.00  0.00     0.190 A 
ATOM      7  C6  UNK     1      46.216  22.160  10.945  1.00  0.00     0.085 A 
ATOM      8  C7  UNK     1      42.626  23.403  10.965  1.00  0.00     0.094 A 
ATOM      9  C8  UNK     1      44.740  19.791  10.742  1.00  0.00     0.075 A 
ATOM     10  C9  UNK     1      46.134  19.748  10.767  1.00  0.00     0.071 A 
ATOM     11  C10 UNK     1      46.870  20.930  10.868  1.00  0.00     0.074 A 
ENDROOT
BRANCH   5  12
ATOM     12  C5  UNK     1      40.562  22.068  10.825  1.00  0.00    -0.002 A 
ATOM     13  C12 UNK     1      39.957  21.340   9.798  1.00  0.00     0.014 A 
ATOM     14  C14 UNK     1      38.568  21.211   9.753  1.00  0.00     0.001 A 
ATOM     15  C15 UNK     1      37.780  21.810  10.735  1.00  0.00     0.000 A 
ATOM     16  C13 UNK     1      38.381  22.538  11.763  1.00  0.00     0.001 A 
ATOM     17  C11 UNK     1      39.769  22.666  11.808  1.00  0.00     0.014 A 
ENDBRANCH   5  12
BRANCH  10  18
ATOM     18  O4  UNK     1      46.778  18.550  10.691  1.00  0.00    -0.361 OA
ATOM     19  H10 UNK     1      47.738  18.707  10.703  1.00  0.00     0.217 HD
ENDBRANCH  10  18
BRANCH   7  20
ATOM     20  O2  UNK     1      46.979  23.283  11.041  1.00  0.00    -0.360 OA
ATOM     21  H9  UNK     1      46.587  24.006  10.529  1.00  0.00     0.217 HD
ENDBRANCH   7  20
TORSDOF 3
ENDMDL
MODEL 9
REMARK VINA RESULT:      -5.6      1.863      4.004
REMARK  3 active torsions:
REMARK  status: ('A' for Active; 'I' for Inactive)
REMARK    1  A    between atoms: O2_2  and  C6_10 
REMARK    2  A    between atoms: O4_4  and  C9_13 
REMARK    3  A    between atoms: C3_7  and  C5_9 
ROOT
ATOM      1  O1  UNK     1      39.890  19.860  12.146  1.00  0.00    -0.309 OA
ATOM      2  O3  UNK     1      43.540  20.587  10.488  1.00  0.00    -0.287 OA
ATOM      3  C1  UNK     1      42.171  19.127  11.745  1.00  0.00     0.081 A 
ATOM      4  C2  UNK     1      40.900  18.941  12.286  1.00  0.00     0.095 A 
ATOM      5  C3  UNK     1      40.150  21.026  11.443  1.00  0.00     0.090 A 
ATOM      6  C4  UNK     1      42.449  20.359  10.992  1.00  0.00     0.190 A 
ATOM      7  C6  UNK     1      43.161  18.158  11.919  1.00  0.00     0.085 A 
ATOM      8  C7  UNK     1      41.330  21.317  10.872  1.00  0.00     0.094 A 
ATOM      9  C8  UNK     1      40.610  17.781  13.003  1.00  0.00     0.075 A 
ATOM     10  C9  UNK     1      41.596  16.810  13.179  1.00  0.00     0.071 A 
ATOM     11  C10 UNK     1      42.869  16.998  12.637  1.00  0.00     0.074 A 
ENDROOT
BRANCH   5  12
ATOM     12  C5  UNK     1      38.996  21.941  11.348  1.00  0.00    -0.002 A 
ATOM     13  C12 UNK     1      38.012  21.729  10.378  1.00  0.00     0.014 A 
ATOM     14  C14 UNK     1      36.920  22.593  10.287  1.00  0.00     0.001 A 
ATOM     15  C15 UNK     1      36.808  23.671  11.166  1.00  0.00     0.000 A 
ATOM     16  C13 UNK     1      37.789  23.885  12.135  1.00  0.00     0.001 A 
ATOM     17  C11 UNK     1      38.880  23.021  12.226  1.00  0.00     0.014 A 
ENDBRANCH   5  12
BRANCH  10  18
ATOM     18  O4  UNK     1      41.316  15.675  13.879  1.00  0.00    -0.361 OA
ATOM     19  H10 UNK     1      41.230  15.899  14.821  1.00  0.00     0.217 HD
ENDBRANCH  10  18
BRANCH   7  20
ATOM     20  O2  UNK     1      44.418  18.292  11.410  1.00  0.00    -0.360 OA
ATOM     21  H9  UNK     1      44.975  18.806  12.014  1.00  0.00     0.217 HD
ENDBRANCH   7  20
TORSDOF 3
ENDMDL
MODEL 10
REMARK VINA RESULT:      -5.6      1.850      3.816
REMARK  3 active torsions:
REMARK  status: ('A' for Active; 'I' for Inactive)
REMARK    1  A    between atoms: O2_2  and  C6_10 
REMARK    2  A    between atoms: O4_4  and  C9_13 
REMARK    3  A    between atoms: C3_7  and  C5_9 
ROOT
ATOM      1  O1  UNK     1      39.862  19.909  12.148  1.00  0.00    -0.309 OA
ATOM      2  O3  UNK     1      43.516  20.665  10.511  1.00  0.00    -0.287 OA
ATOM      3  C1  UNK     1      42.149  19.190  11.752  1.00  0.00     0.081 A 
ATOM      4  C2  UNK     1      40.876  18.994  12.285  1.00  0.00     0.095 A 
ATOM      5  C3  UNK     1      40.120  21.081  11.454  1.00  0.00     0.090 A 
ATOM      6  C4  UNK     1      42.423  20.428  11.007  1.00  0.00     0.190 A 
ATOM      7  C6  UNK     1      43.143  18.224  11.922  1.00  0.00     0.085 A 
ATOM      8  C7  UNK     1      41.301  21.382  10.890  1.00  0.00     0.094 A 
ATOM      9  C8  UNK     1      40.589  17.827  12.993  1.00  0.00     0.075 A 
ATOM     10  C9  UNK     1      41.579  16.860  13.167  1.00  0.00     0.071 A 
ATOM     11  C10 UNK     1      42.853  17.058  12.631  1.00  0.00     0.074 A 
ENDROOT
BRANCH   5  12
ATOM     12  C5  UNK     1      38.961  21.990  11.360  1.00  0.00    -0.002 A 
ATOM     13  C12 UNK     1      38.842  23.069  12.241  1.00  0.00     0.014 A 
ATOM     14  C14 UNK     1      37.747  23.928  12.153  1.00  0.00     0.001 A 
ATOM     15  C15 UNK     1      36.767  23.713  11.185  1.00  0.00     0.000 A 
ATOM     16  C13 UNK     1      36.882  22.637  10.304  1.00  0.00     0.001 A 
ATOM     17  C11 UNK     1      37.977  21.778  10.391  1.00  0.00     0.014 A 
ENDBRANCH   5  12
BRANCH  10  18
ATOM     18  O4  UNK     1      41.302  15.719  13.857  1.00  0.00    -0.361 OA
ATOM     19  H10 UNK     1      41.026  15.030  13.229  1.00  0.00     0.217 HD
ENDBRANCH  10  18
BRANCH   7  20
ATOM     20  O2  UNK     1      44.401  18.369  11.420  1.00  0.00    -0.360 OA
ATOM     21  H9  UNK     1      44.908  19.002  11.951  1.00  0.00     0.217 HD
ENDBRANCH   7  20
TORSDOF 3
ENDMDL
MODEL 11
REMARK VINA RESULT:      -5.6      2.726      4.522
REMARK  3 active torsions:
REMARK  status: ('A' for Active; 'I' for Inactive)
REMARK    1  A    between atoms: O2_2  and  C6_10 
REMARK    2  A    between atoms: O4_4  and  C9_13 
REMARK    3  A    between atoms: C3_7  and  C5_9 
ROOT
ATOM      1  O1  UNK     1      42.001  22.081  10.952  1.00  0.00    -0.309 OA
ATOM      2  O3  UNK     1      42.612  18.075  11.373  1.00  0.00    -0.287 OA
ATOM      3  C1  UNK     1      43.557  20.221  11.082  1.00  0.00     0.081 A 
ATOM      4  C2  UNK     1      43.278  21.579  10.944  1.00  0.00     0.095 A 
ATOM      5  C3  UNK     1      40.944  21.195  11.097  1.00  0.00     0.090 A 
ATOM      6  C4  UNK     1      42.440  19.279  11.244  1.00  0.00     0.190 A 
ATOM      7  C6  UNK     1      44.878  19.766  11.066  1.00  0.00     0.085 A 
ATOM      8  C7  UNK     1      41.085  19.868  11.244  1.00  0.00     0.094 A 
ATOM      9  C8  UNK     1      44.320  22.493  10.790  1.00  0.00     0.075 A 
ATOM     10  C9  UNK     1      45.641  22.043  10.774  1.00  0.00     0.071 A 
ATOM     11  C10 UNK     1      45.918  20.682  10.912  1.00  0.00     0.074 A 
ENDROOT
BRANCH   5  12
ATOM     12  C5  UNK     1      39.616  21.840  11.099  1.00  0.00    -0.002 A 
ATOM     13  C12 UNK     1      38.660  21.480  10.145  1.00  0.00     0.014 A 
ATOM     14  C14 UNK     1      37.405  22.089  10.146  1.00  0.00     0.001 A 
ATOM     15  C15 UNK     1      37.101  23.060  11.101  1.00  0.00     0.000 A 
ATOM     16  C13 UNK     1      38.054  23.422  12.054  1.00  0.00     0.001 A 
ATOM     17  C11 UNK     1      39.308  22.813  12.053  1.00  0.00     0.014 A 
ENDBRANCH   5  12
BRANCH  10  18
ATOM     18  O4  UNK     1      46.661  22.934  10.625  1.00  0.00    -0.361 OA
ATOM     19  H10 UNK     1      47.395  22.672  11.206  1.00  0.00     0.217 HD
ENDBRANCH  10  18
BRANCH   7  20
ATOM     20  O2  UNK     1      45.202  18.449  11.197  1.00  0.00    -0.360 OA
ATOM     21  H9  UNK     1      45.184  18.187  12.130  1.00  0.00     0.217 HD
ENDBRANCH   7  20
TORSDOF 3
ENDMDL
MODEL 12
REMARK VINA RESULT:      -5.5      3.289      4.428
REMARK  3 active torsions:
REMARK  status: ('A' for Active; 'I' for Inactive)
REMARK    1  A    between atoms: O2_2  and  C6_10 
REMARK    2  A    between atoms: O4_4  and  C9_13 
REMARK    3  A    between atoms: C3_7  and  C5_9 
ROOT
ATOM      1  O1  UNK     1      42.829  23.480  11.474  1.00  0.00    -0.309 OA
ATOM      2  O3  UNK     1      40.188  20.379  11.363  1.00  0.00    -0.287 OA
ATOM      3  C1  UNK     1      42.402  21.132  11.019  1.00  0.00     0.081 A 
ATOM      4  C2  UNK     1      43.252  22.235  11.080  1.00  0.00     0.095 A 
ATOM      5  C3  UNK     1      41.496  23.647  11.817  1.00  0.00     0.090 A 
ATOM      6  C4  UNK     1      40.989  21.303  11.391  1.00  0.00     0.190 A 
ATOM      7  C6  UNK     1      42.887  19.887  10.611  1.00  0.00     0.085 A 
ATOM      8  C7  UNK     1      40.583  22.662  11.804  1.00  0.00     0.094 A 
ATOM      9  C8  UNK     1      44.596  22.099  10.734  1.00  0.00     0.075 A 
ATOM     10  C9  UNK     1      45.085  20.858  10.326  1.00  0.00     0.071 A 
ATOM     11  C10 UNK     1      44.232  19.755  10.265  1.00  0.00     0.074 A 
ENDROOT
BRANCH   5  12
ATOM     12  C5  UNK     1      41.150  25.021  12.231  1.00  0.00    -0.002 A 
ATOM     13  C12 UNK     1      39.839  25.333  12.600  1.00  0.00     0.014 A 
ATOM     14  C14 UNK     1      39.511  26.632  12.991  1.00  0.00     0.001 A 
ATOM     15  C15 UNK     1      40.493  27.622  13.014  1.00  0.00     0.000 A 
ATOM     16  C13 UNK     1      41.803  27.314  12.645  1.00  0.00     0.001 A 
ATOM     17  C11 UNK     1      42.131  26.016  12.255  1.00  0.00     0.014 A 
ENDBRANCH   5  12
BRANCH  10  18
ATOM     18  O4  UNK     1      46.398  20.722   9.989  1.00  0.00    -0.361 OA
ATOM     19  H10 UNK     1      46.679  19.811  10.179  1.00  0.00     0.217 HD
ENDBRANCH  10  18
BRANCH   7  20
ATOM     20  O2  UNK     1      42.097  18.781  10.535  1.00  0.00    -0.360 OA
ATOM     21  H9  UNK     1      41.896  18.446  11.421  1.00  0.00     0.217 HD
ENDBRANCH   7  20
TORSDOF 3
ENDMDL
MODEL 13
REMARK VINA RESULT:      -5.5      3.579      5.267
REMARK  3 active torsions:
REMARK  status: ('A' for Active; 'I' for Inactive)
REMARK    1  A    between atoms: O2_2  and  C6_10 
REMARK    2  A    between atoms: O4_4  and  C9_13 
REMARK    3  A    between atoms: C3_7  and  C5_9 
ROOT
ATOM      1  O1  UNK     1      41.613  23.296  11.655  1.00  0.00    -0.309 OA
ATOM      2  O3  UNK     1      45.631  23.945  11.470  1.00  0.00    -0.287 OA
ATOM      3  C1  UNK     1      43.838  22.426  11.218  1.00  0.00     0.081 A 
ATOM      4  C2  UNK     1      42.456  22.273  11.300  1.00  0.00     0.095 A 
ATOM      5  C3  UNK     1      42.164  24.533  11.953  1.00  0.00     0.090 A 
ATOM      6  C4  UNK     1      44.426  23.738  11.524  1.00  0.00     0.190 A 
ATOM      7  C6  UNK     1      44.648  21.349  10.850  1.00  0.00     0.085 A 
ATOM      8  C7  UNK     1      43.478  24.806  11.904  1.00  0.00     0.094 A 
ATOM      9  C8  UNK     1      41.872  21.039  11.013  1.00  0.00     0.075 A 
ATOM     10  C9  UNK     1      42.677  19.960  10.645  1.00  0.00     0.071 A 
ATOM     11  C10 UNK     1      44.062  20.115  10.564  1.00  0.00     0.074 A 
ENDROOT
BRANCH   5  12
ATOM     12  C5  UNK     1      41.171  25.562  12.316  1.00  0.00    -0.002 A 
ATOM     13  C12 UNK     1      39.855  25.193  12.611  1.00  0.00     0.014 A 
ATOM     14  C14 UNK     1      38.915  26.166  12.954  1.00  0.00     0.001 A 
ATOM     15  C15 UNK     1      39.287  27.509  13.004  1.00  0.00     0.000 A 
ATOM     16  C13 UNK     1      40.600  27.880  12.711  1.00  0.00     0.001 A 
ATOM     17  C11 UNK     1      41.539  26.908  12.368  1.00  0.00     0.014 A 
ENDBRANCH   5  12
BRANCH  10  18
ATOM     18  O4  UNK     1      42.111  18.754  10.363  1.00  0.00    -0.361 OA
ATOM     19  H10 UNK     1      42.813  18.087  10.281  1.00  0.00     0.217 HD
ENDBRANCH  10  18
BRANCH   7  20
ATOM     20  O2  UNK     1      46.003  21.448  10.755  1.00  0.00    -0.360 OA
ATOM     21  H9  UNK     1      46.361  21.938  11.511  1.00  0.00     0.217 HD
ENDBRANCH   7  20
TORSDOF 3
ENDMDL
MODEL 14
REMARK VINA RESULT:      -5.5      4.922      7.917
REMARK  3 active torsions:
REMARK  status: ('A' for Active; 'I' for Inactive)
REMARK    1  A    between atoms: O2_2  and  C6_10 
REMARK    2  A    between atoms: O4_4  and  C9_13 
REMARK    3  A    between atoms: C3_7  and  C5_9 
ROOT
ATOM      1  O1  UNK     1      44.379  18.484  11.634  1.00  0.00    -0.309 OA
ATOM      2  O3  UNK     1      41.085  20.684  10.680  1.00  0.00    -0.287 OA
ATOM      3  C1  UNK     1      41.997  18.879  11.903  1.00  0.00     0.081 A 
ATOM      4  C2  UNK     1      43.163  18.169  12.186  1.00  0.00     0.095 A 
ATOM      5  C3  UNK     1      44.447  19.550  10.750  1.00  0.00     0.090 A 
ATOM      6  C4  UNK     1      42.067  20.016  10.973  1.00  0.00     0.190 A 
ATOM      7  C6  UNK     1      40.786  18.514  12.494  1.00  0.00     0.085 A 
ATOM      8  C7  UNK     1      43.397  20.313  10.403  1.00  0.00     0.094 A 
ATOM      9  C8  UNK     1      43.124  17.088  13.067  1.00  0.00     0.075 A 
ATOM     10  C9  UNK     1      41.916  16.720  13.660  1.00  0.00     0.071 A 
ATOM     11  C10 UNK     1      40.750  17.432  13.375  1.00  0.00     0.074 A 
ENDROOT
BRANCH   5  12
ATOM     12  C5  UNK     1      45.801  19.806  10.221  1.00  0.00    -0.002 A 
ATOM     13  C12 UNK     1      46.000  20.791   9.250  1.00  0.00     0.014 A 
ATOM     14  C14 UNK     1      47.280  21.033   8.749  1.00  0.00     0.001 A 
ATOM     15  C15 UNK     1      48.364  20.291   9.217  1.00  0.00     0.000 A 
ATOM     16  C13 UNK     1      48.169  19.307  10.186  1.00  0.00     0.001 A 
ATOM     17  C11 UNK     1      46.890  19.065  10.687  1.00  0.00     0.014 A 
ENDBRANCH   5  12
BRANCH  10  18
ATOM     18  O4  UNK     1      41.876  15.665  14.521  1.00  0.00    -0.361 OA
ATOM     19  H10 UNK     1      42.763  15.528  14.893  1.00  0.00     0.217 HD
ENDBRANCH  10  18
BRANCH   7  20
ATOM     20  O2  UNK     1      39.621  19.175  12.250  1.00  0.00    -0.360 OA
ATOM     21  H9  UNK     1      38.917  18.850  12.832  1.00  0.00     0.217 HD
ENDBRANCH   7  20
TORSDOF 3
ENDMDL
MODEL 15
REMARK VINA RESULT:      -5.5      2.985      7.166
REMARK  3 active torsions:
REMARK  status: ('A' for Active; 'I' for Inactive)
REMARK    1  A    between atoms: O2_2  and  C6_10 
REMARK    2  A    between atoms: O4_4  and  C9_13 
REMARK    3  A    between atoms: C3_7  and  C5_9 
ROOT
ATOM      1  O1  UNK     1      42.577  20.297  10.449  1.00  0.00    -0.309 OA
ATOM      2  O3  UNK     1      41.421  18.434  13.883  1.00  0.00    -0.287 OA
ATOM      3  C1  UNK     1      40.802  19.733  12.008  1.00  0.00     0.081 A 
ATOM      4  C2  UNK     1      41.264  20.347  10.846  1.00  0.00     0.095 A 
ATOM      5  C3  UNK     1      43.482  19.612  11.245  1.00  0.00     0.090 A 
ATOM      6  C4  UNK     1      41.757  18.998  12.851  1.00  0.00     0.190 A 
ATOM      7  C6  UNK     1      39.453  19.816  12.364  1.00  0.00     0.085 A 
ATOM      8  C7  UNK     1      43.158  18.976  12.382  1.00  0.00     0.094 A 
ATOM      9  C8  UNK     1      40.378  21.048  10.028  1.00  0.00     0.075 A 
ATOM     10  C9  UNK     1      39.030  21.134  10.379  1.00  0.00     0.071 A 
ATOM     11  C10 UNK     1      38.569  20.519  11.544  1.00  0.00     0.074 A 
ENDROOT
BRANCH   5  12
ATOM     12  C5  UNK     1      44.863  19.615  10.723  1.00  0.00    -0.002 A 
ATOM     13  C12 UNK     1      45.822  18.760  11.272  1.00  0.00     0.014 A 
ATOM     14  C14 UNK     1      47.128  18.763  10.780  1.00  0.00     0.001 A 
ATOM     15  C15 UNK     1      47.478  19.621   9.737  1.00  0.00     0.000 A 
ATOM     16  C13 UNK     1      46.523  20.476   9.187  1.00  0.00     0.001 A 
ATOM     17  C11 UNK     1      45.218  20.473   9.678  1.00  0.00     0.014 A 
ENDBRANCH   5  12
BRANCH  10  18
ATOM     18  O4  UNK     1      38.162  21.818   9.582  1.00  0.00    -0.361 OA
ATOM     19  H10 UNK     1      37.258  21.515   9.769  1.00  0.00     0.217 HD
ENDBRANCH  10  18
BRANCH   7  20
ATOM     20  O2  UNK     1      38.953  19.234  13.488  1.00  0.00    -0.360 OA
ATOM     21  H9  UNK     1      38.331  19.830  13.931  1.00  0.00     0.217 HD
ENDBRANCH   7  20
TORSDOF 3
ENDMDL
MODEL 16
REMARK VINA RESULT:      -5.4      4.693      8.321
REMARK  3 active torsions:
REMARK  status: ('A' for Active; 'I' for Inactive)
REMARK    1  A    between atoms: O2_2  and  C6_10 
REMARK    2  A    between atoms: O4_4  and  C9_13 
REMARK    3  A    between atoms: C3_7  and  C5_9 
ROOT
ATOM      1  O1  UNK     1      44.832  22.916  10.659  1.00  0.00    -0.309 OA
ATOM      2  O3  UNK     1      41.263  21.357  11.854  1.00  0.00    -0.287 OA
ATOM      3  C1  UNK     1      42.584  23.284  11.502  1.00  0.00     0.081 A 
ATOM      4  C2  UNK     1      43.827  23.751  11.079  1.00  0.00     0.095 A 
ATOM      5  C3  UNK     1      44.600  21.549  10.663  1.00  0.00     0.090 A 
ATOM      6  C4  UNK     1      42.331  21.836  11.499  1.00  0.00     0.190 A 
ATOM      7  C6  UNK     1      41.597  24.180  11.919  1.00  0.00     0.085 A 
ATOM      8  C7  UNK     1      43.444  20.980  11.041  1.00  0.00     0.094 A 
ATOM      9  C8  UNK     1      44.092  25.120  11.070  1.00  0.00     0.075 A 
ATOM     10  C9  UNK     1      43.109  26.019  11.487  1.00  0.00     0.071 A 
ATOM     11  C10 UNK     1      41.864  25.550  11.909  1.00  0.00     0.074 A 
ENDROOT
BRANCH   5  12
ATOM     12  C5  UNK     1      45.743  20.745  10.187  1.00  0.00    -0.002 A 
ATOM     13  C12 UNK     1      46.183  19.645  10.927  1.00  0.00     0.014 A 
ATOM     14  C14 UNK     1      47.263  18.884  10.478  1.00  0.00     0.001 A 
ATOM     15  C15 UNK     1      47.907  19.222   9.288  1.00  0.00     0.000 A 
ATOM     16  C13 UNK     1      47.470  20.320   8.546  1.00  0.00     0.001 A 
ATOM     17  C11 UNK     1      46.390  21.080   8.995  1.00  0.00     0.014 A 
ENDBRANCH   5  12
BRANCH  10  18
ATOM     18  O4  UNK     1      43.364  27.357  11.478  1.00  0.00    -0.361 OA
ATOM     19  H10 UNK     1      42.709  27.799  10.913  1.00  0.00     0.217 HD
ENDBRANCH  10  18
BRANCH   7  20
ATOM     20  O2  UNK     1      40.367  23.774  12.340  1.00  0.00    -0.360 OA
ATOM     21  H9  UNK     1      40.441  23.259  13.157  1.00  0.00     0.217 HD
ENDBRANCH   7  20
TORSDOF 3
ENDMDL
MODEL 17
REMARK VINA RESULT:      -5.4      3.864      7.507
REMARK  3 active torsions:
REMARK  status: ('A' for Active; 'I' for Inactive)
REMARK    1  A    between atoms: O2_2  and  C6_10 
REMARK    2  A    between atoms: O4_4  and  C9_13 
REMARK    3  A    between atoms: C3_7  and  C5_9 
ROOT
ATOM      1  O1  UNK     1      41.263  23.124  12.190  1.00  0.00    -0.309 OA
ATOM      2  O3  UNK     1      44.494  25.257  10.921  1.00  0.00    -0.287 OA
ATOM      3  C1  UNK     1      42.320  25.284  11.847  1.00  0.00     0.081 A 
ATOM      4  C2  UNK     1      41.250  24.494  12.264  1.00  0.00     0.095 A 
ATOM      5  C3  UNK     1      42.387  22.501  11.670  1.00  0.00     0.090 A 
ATOM      6  C4  UNK     1      43.518  24.627  11.303  1.00  0.00     0.190 A 
ATOM      7  C6  UNK     1      42.252  26.676  11.946  1.00  0.00     0.085 A 
ATOM      8  C7  UNK     1      43.481  23.151  11.242  1.00  0.00     0.094 A 
ATOM      9  C8  UNK     1      40.103  25.093  12.786  1.00  0.00     0.075 A 
ATOM     10  C9  UNK     1      40.031  26.483  12.886  1.00  0.00     0.071 A 
ATOM     11  C10 UNK     1      41.104  27.272  12.468  1.00  0.00     0.074 A 
ENDROOT
BRANCH   5  12
ATOM     12  C5  UNK     1      42.298  21.028  11.642  1.00  0.00    -0.002 A 
ATOM     13  C12 UNK     1      41.314  20.370  12.385  1.00  0.00     0.014 A 
ATOM     14  C14 UNK     1      41.230  18.978  12.359  1.00  0.00     0.001 A 
ATOM     15  C15 UNK     1      42.128  18.239  11.590  1.00  0.00     0.000 A 
ATOM     16  C13 UNK     1      43.111  18.892  10.846  1.00  0.00     0.001 A 
ATOM     17  C11 UNK     1      43.196  20.284  10.872  1.00  0.00     0.014 A 
ENDBRANCH   5  12
BRANCH  10  18
ATOM     18  O4  UNK     1      38.913  27.070  13.396  1.00  0.00    -0.361 OA
ATOM     19  H10 UNK     1      38.534  26.489  14.077  1.00  0.00     0.217 HD
ENDBRANCH  10  18
BRANCH   7  20
ATOM     20  O2  UNK     1      43.270  27.490  11.553  1.00  0.00    -0.360 OA
ATOM     21  H9  UNK     1      43.033  27.962  10.740  1.00  0.00     0.217 HD
ENDBRANCH   7  20
TORSDOF 3
ENDMDL
MODEL 18
REMARK VINA RESULT:      -5.4      5.012      7.241
REMARK  3 active torsions:
REMARK  status: ('A' for Active; 'I' for Inactive)
REMARK    1  A    between atoms: O2_2  and  C6_10 
REMARK    2  A    between atoms: O4_4  and  C9_13 
REMARK    3  A    between atoms: C3_7  and  C5_9 
ROOT
ATOM      1  O1  UNK     1      42.935  22.037  11.338  1.00  0.00    -0.309 OA
ATOM      2  O3  UNK     1      42.468  24.224  14.743  1.00  0.00    -0.287 OA
ATOM      3  C1  UNK     1      42.943  24.207  12.428  1.00  0.00     0.081 A 
ATOM      4  C2  UNK     1      43.087  23.400  11.301  1.00  0.00     0.095 A 
ATOM      5  C3  UNK     1      42.632  21.438  12.551  1.00  0.00     0.090 A 
ATOM      6  C4  UNK     1      42.612  23.577  13.715  1.00  0.00     0.190 A 
ATOM      7  C6  UNK     1      43.109  25.591  12.332  1.00  0.00     0.085 A 
ATOM      8  C7  UNK     1      42.462  22.108  13.703  1.00  0.00     0.094 A 
ATOM      9  C8  UNK     1      43.399  23.973  10.068  1.00  0.00     0.075 A 
ATOM     10  C9  UNK     1      43.566  25.354   9.968  1.00  0.00     0.071 A 
ATOM     11  C10 UNK     1      43.421  26.161  11.098  1.00  0.00     0.074 A 
ENDROOT
BRANCH   5  12
ATOM     12  C5  UNK     1      42.484  19.971  12.477  1.00  0.00    -0.002 A 
ATOM     13  C12 UNK     1      41.266  19.372  12.805  1.00  0.00     0.014 A 
ATOM     14  C14 UNK     1      41.126  17.985  12.736  1.00  0.00     0.001 A 
ATOM     15  C15 UNK     1      42.203  17.194  12.337  1.00  0.00     0.000 A 
ATOM     16  C13 UNK     1      43.421  17.790  12.008  1.00  0.00     0.001 A 
ATOM     17  C11 UNK     1      43.561  19.175  12.077  1.00  0.00     0.014 A 
ENDBRANCH   5  12
BRANCH  10  18
ATOM     18  O4  UNK     1      43.869  25.917   8.765  1.00  0.00    -0.361 OA
ATOM     19  H10 UNK     1      44.829  26.059   8.717  1.00  0.00     0.217 HD
ENDBRANCH  10  18
BRANCH   7  20
ATOM     20  O2  UNK     1      42.978  26.422  13.403  1.00  0.00    -0.360 OA
ATOM     21  H9  UNK     1      43.222  27.328  13.161  1.00  0.00     0.217 HD
ENDBRANCH   7  20
TORSDOF 3
ENDMDL
