MODEL 1
REMARK VINA RESULT:      -8.2      0.000      0.000
REMARK  3 active torsions:
REMARK  status: ('A' for Active; 'I' for Inactive)
REMARK    1  A    between atoms: O2_2  and  C6_10 
REMARK    2  A    between atoms: O4_4  and  C9_13 
REMARK    3  A    between atoms: C3_7  and  C5_9 
ROOT
ATOM      1  O1  UNK     1      40.220  14.470  -0.007  1.00  0.00    -0.309 OA
ATOM      2  O3  UNK     1      41.891  11.551  -2.307  1.00  0.00    -0.287 OA
ATOM      3  C1  UNK     1      40.988  12.175  -0.214  1.00  0.00     0.081 A 
ATOM      4  C2  UNK     1      40.421  13.217   0.516  1.00  0.00     0.095 A 
ATOM      5  C3  UNK     1      40.605  14.708  -1.317  1.00  0.00     0.090 A 
ATOM      6  C4  UNK     1      41.390  12.420  -1.607  1.00  0.00     0.190 A 
ATOM      7  C6  UNK     1      41.169  10.919   0.371  1.00  0.00     0.085 A 
ATOM      8  C7  UNK     1      41.155  13.784  -2.123  1.00  0.00     0.094 A 
ATOM      9  C8  UNK     1      40.029  13.010   1.839  1.00  0.00     0.075 A 
ATOM     10  C9  UNK     1      40.208  11.757   2.427  1.00  0.00     0.071 A 
ATOM     11  C10 UNK     1      40.776  10.714   1.694  1.00  0.00     0.074 A 
ENDROOT
BRANCH   5  12
ATOM     12  C5  UNK     1      40.339  16.083  -1.782  1.00  0.00    -0.002 A 
ATOM     13  C12 UNK     1      39.772  17.019  -0.913  1.00  0.00     0.014 A 
ATOM     14  C14 UNK     1      39.519  18.320  -1.351  1.00  0.00     0.001 A 
ATOM     15  C15 UNK     1      39.833  18.688  -2.659  1.00  0.00     0.000 A 
ATOM     16  C13 UNK     1      40.399  17.756  -3.529  1.00  0.00     0.001 A 
ATOM     17  C11 UNK     1      40.652  16.457  -3.091  1.00  0.00     0.014 A 
ENDBRANCH   5  12
BRANCH  10  18
ATOM     18  O4  UNK     1      39.825  11.552   3.718  1.00  0.00    -0.361 OA
ATOM     19  H10 UNK     1      39.887  10.602   3.917  1.00  0.00     0.217 HD
ENDBRANCH  10  18
BRANCH   7  20
ATOM     20  O2  UNK     1      41.717   9.869  -0.301  1.00  0.00    -0.360 OA
ATOM     21  H9  UNK     1      41.028   9.354  -0.748  1.00  0.00     0.217 HD
ENDBRANCH   7  20
TORSDOF 3
ENDMDL
MODEL 2
REMARK VINA RESULT:      -7.8      2.427      6.382
REMARK  3 active torsions:
REMARK  status: ('A' for Active; 'I' for Inactive)
REMARK    1  A    between atoms: O2_2  and  C6_10 
REMARK    2  A    between atoms: O4_4  and  C9_13 
REMARK    3  A    between atoms: C3_7  and  C5_9 
ROOT
ATOM      1  O1  UNK     1      39.764  15.636  -0.248  1.00  0.00    -0.309 OA
ATOM      2  O3  UNK     1      40.972  17.244  -3.791  1.00  0.00    -0.287 OA
ATOM      3  C1  UNK     1      39.881  17.565  -1.720  1.00  0.00     0.081 A 
ATOM      4  C2  UNK     1      39.497  16.953  -0.528  1.00  0.00     0.095 A 
ATOM      5  C3  UNK     1      40.438  14.882  -1.196  1.00  0.00     0.090 A 
ATOM      6  C4  UNK     1      40.604  16.771  -2.725  1.00  0.00     0.190 A 
ATOM      7  C6  UNK     1      39.583  18.910  -1.952  1.00  0.00     0.085 A 
ATOM      8  C7  UNK     1      40.864  15.359  -2.377  1.00  0.00     0.094 A 
ATOM      9  C8  UNK     1      38.812  17.684   0.443  1.00  0.00     0.075 A 
ATOM     10  C9  UNK     1      38.512  19.027   0.215  1.00  0.00     0.071 A 
ATOM     11  C10 UNK     1      38.897  19.639  -0.979  1.00  0.00     0.074 A 
ENDROOT
BRANCH   5  12
ATOM     12  C5  UNK     1      40.678  13.483  -0.791  1.00  0.00    -0.002 A 
ATOM     13  C12 UNK     1      41.371  12.616  -1.641  1.00  0.00     0.014 A 
ATOM     14  C14 UNK     1      41.598  11.294  -1.259  1.00  0.00     0.001 A 
ATOM     15  C15 UNK     1      41.134  10.834  -0.026  1.00  0.00     0.000 A 
ATOM     16  C13 UNK     1      40.442  11.697   0.824  1.00  0.00     0.001 A 
ATOM     17  C11 UNK     1      40.215  13.019   0.443  1.00  0.00     0.014 A 
ENDBRANCH   5  12
BRANCH  10  18
ATOM     18  O4  UNK     1      37.844  19.744   1.161  1.00  0.00    -0.361 OA
ATOM     19  H10 UNK     1      37.270  19.143   1.665  1.00  0.00     0.217 HD
ENDBRANCH  10  18
BRANCH   7  20
ATOM     20  O2  UNK     1      39.936  19.553  -3.099  1.00  0.00    -0.360 OA
ATOM     21  H9  UNK     1      39.684  19.027  -3.874  1.00  0.00     0.217 HD
ENDBRANCH   7  20
TORSDOF 3
ENDMDL
MODEL 3
REMARK VINA RESULT:      -7.8      2.427      6.286
REMARK  3 active torsions:
REMARK  status: ('A' for Active; 'I' for Inactive)
REMARK    1  A    between atoms: O2_2  and  C6_10 
REMARK    2  A    between atoms: O4_4  and  C9_13 
REMARK    3  A    between atoms: C3_7  and  C5_9 
ROOT
ATOM      1  O1  UNK     1      39.763  15.636  -0.248  1.00  0.00    -0.309 OA
ATOM      2  O3  UNK     1      40.968  17.241  -3.794  1.00  0.00    -0.287 OA
ATOM      3  C1  UNK     1      39.879  17.564  -1.722  1.00  0.00     0.081 A 
ATOM      4  C2  UNK     1      39.497  16.953  -0.529  1.00  0.00     0.095 A 
ATOM      5  C3  UNK     1      40.435  14.881  -1.197  1.00  0.00     0.090 A 
ATOM      6  C4  UNK     1      40.600  16.769  -2.727  1.00  0.00     0.190 A 
ATOM      7  C6  UNK     1      39.582  18.908  -1.954  1.00  0.00     0.085 A 
ATOM      8  C7  UNK     1      40.860  15.357  -2.379  1.00  0.00     0.094 A 
ATOM      9  C8  UNK     1      38.814  17.685   0.442  1.00  0.00     0.075 A 
ATOM     10  C9  UNK     1      38.514  19.028   0.215  1.00  0.00     0.071 A 
ATOM     11  C10 UNK     1      38.898  19.638  -0.981  1.00  0.00     0.074 A 
ENDROOT
BRANCH   5  12
ATOM     12  C5  UNK     1      40.675  13.482  -0.792  1.00  0.00    -0.002 A 
ATOM     13  C12 UNK     1      40.212  13.020   0.443  1.00  0.00     0.014 A 
ATOM     14  C14 UNK     1      40.439  11.698   0.827  1.00  0.00     0.001 A 
ATOM     15  C15 UNK     1      41.129  10.834  -0.023  1.00  0.00     0.000 A 
ATOM     16  C13 UNK     1      41.593  11.292  -1.256  1.00  0.00     0.001 A 
ATOM     17  C11 UNK     1      41.366  12.613  -1.640  1.00  0.00     0.014 A 
ENDBRANCH   5  12
BRANCH  10  18
ATOM     18  O4  UNK     1      37.848  19.746   1.161  1.00  0.00    -0.361 OA
ATOM     19  H10 UNK     1      38.305  20.594   1.293  1.00  0.00     0.217 HD
ENDBRANCH  10  18
BRANCH   7  20
ATOM     20  O2  UNK     1      39.934  19.551  -3.102  1.00  0.00    -0.360 OA
ATOM     21  H9  UNK     1      40.869  19.397  -3.303  1.00  0.00     0.217 HD
ENDBRANCH   7  20
TORSDOF 3
ENDMDL
MODEL 4
REMARK VINA RESULT:      -7.6      2.608      4.207
REMARK  3 active torsions:
REMARK  status: ('A' for Active; 'I' for Inactive)
REMARK    1  A    between atoms: O2_2  and  C6_10 
REMARK    2  A    between atoms: O4_4  and  C9_13 
REMARK    3  A    between atoms: C3_7  and  C5_9 
ROOT
ATOM      1  O1  UNK     1      40.338  17.006  -1.227  1.00  0.00    -0.309 OA
ATOM      2  O3  UNK     1      36.884  14.926  -0.637  1.00  0.00    -0.287 OA
ATOM      3  C1  UNK     1      39.190  14.866  -1.149  1.00  0.00     0.081 A 
ATOM      4  C2  UNK     1      40.335  15.638  -1.337  1.00  0.00     0.095 A 
ATOM      5  C3  UNK     1      39.146  17.646  -0.923  1.00  0.00     0.090 A 
ATOM      6  C4  UNK     1      37.927  15.540  -0.817  1.00  0.00     0.190 A 
ATOM      7  C6  UNK     1      39.247  13.476  -1.274  1.00  0.00     0.085 A 
ATOM      8  C7  UNK     1      37.980  17.013  -0.713  1.00  0.00     0.094 A 
ATOM      9  C8  UNK     1      41.547  15.023  -1.651  1.00  0.00     0.075 A 
ATOM     10  C9  UNK     1      41.608  13.634  -1.777  1.00  0.00     0.071 A 
ATOM     11  C10 UNK     1      40.460  12.863  -1.588  1.00  0.00     0.074 A 
ENDROOT
BRANCH   5  12
ATOM     12  C5  UNK     1      39.262  19.114  -0.822  1.00  0.00    -0.002 A 
ATOM     13  C12 UNK     1      38.588  19.802   0.190  1.00  0.00     0.014 A 
ATOM     14  C14 UNK     1      38.696  21.190   0.285  1.00  0.00     0.001 A 
ATOM     15  C15 UNK     1      39.479  21.894  -0.630  1.00  0.00     0.000 A 
ATOM     16  C13 UNK     1      40.153  21.209  -1.642  1.00  0.00     0.001 A 
ATOM     17  C11 UNK     1      40.045  19.822  -1.737  1.00  0.00     0.014 A 
ENDBRANCH   5  12
BRANCH  10  18
ATOM     18  O4  UNK     1      42.791  13.031  -2.082  1.00  0.00    -0.361 OA
ATOM     19  H10 UNK     1      42.649  12.070  -2.136  1.00  0.00     0.217 HD
ENDBRANCH  10  18
BRANCH   7  20
ATOM     20  O2  UNK     1      38.157  12.678  -1.099  1.00  0.00    -0.360 OA
ATOM     21  H9  UNK     1      38.018  12.493  -0.158  1.00  0.00     0.217 HD
ENDBRANCH   7  20
TORSDOF 3
ENDMDL
MODEL 5
REMARK VINA RESULT:      -7.2      2.423      6.914
REMARK  3 active torsions:
REMARK  status: ('A' for Active; 'I' for Inactive)
REMARK    1  A    between atoms: O2_2  and  C6_10 
REMARK    2  A    between atoms: O4_4  and  C9_13 
REMARK    3  A    between atoms: C3_7  and  C5_9 
ROOT
ATOM      1  O1  UNK     1      40.733  15.127  -2.139  1.00  0.00    -0.309 OA
ATOM      2  O3  UNK     1      38.949  17.825   0.339  1.00  0.00    -0.287 OA
ATOM      3  C1  UNK     1      39.927  17.388  -1.768  1.00  0.00     0.081 A 
ATOM      4  C2  UNK     1      40.530  16.416  -2.564  1.00  0.00     0.095 A 
ATOM      5  C3  UNK     1      40.327  14.782  -0.859  1.00  0.00     0.090 A 
ATOM      6  C4  UNK     1      39.487  17.024  -0.413  1.00  0.00     0.190 A 
ATOM      7  C6  UNK     1      39.746  18.685  -2.253  1.00  0.00     0.085 A 
ATOM      8  C7  UNK     1      39.730  15.626  -0.002  1.00  0.00     0.094 A 
ATOM      9  C8  UNK     1      40.955  16.735  -3.853  1.00  0.00     0.075 A 
ATOM     10  C9  UNK     1      40.776  18.030  -4.342  1.00  0.00     0.071 A 
ATOM     11  C10 UNK     1      40.172  19.002  -3.543  1.00  0.00     0.074 A 
ENDROOT
BRANCH   5  12
ATOM     12  C5  UNK     1      40.586  13.372  -0.506  1.00  0.00    -0.002 A 
ATOM     13  C12 UNK     1      40.158  12.866   0.724  1.00  0.00     0.014 A 
ATOM     14  C14 UNK     1      40.404  11.534   1.058  1.00  0.00     0.001 A 
ATOM     15  C15 UNK     1      41.077  10.703   0.163  1.00  0.00     0.000 A 
ATOM     16  C13 UNK     1      41.505  11.204  -1.066  1.00  0.00     0.001 A 
ATOM     17  C11 UNK     1      41.260  12.536  -1.400  1.00  0.00     0.014 A 
ENDBRANCH   5  12
BRANCH  10  18
ATOM     18  O4  UNK     1      41.189  18.344  -5.601  1.00  0.00    -0.361 OA
ATOM     19  H10 UNK     1      42.111  18.058  -5.711  1.00  0.00     0.217 HD
ENDBRANCH  10  18
BRANCH   7  20
ATOM     20  O2  UNK     1      39.162  19.670  -1.515  1.00  0.00    -0.360 OA
ATOM     21  H9  UNK     1      38.901  20.411  -2.083  1.00  0.00     0.217 HD
ENDBRANCH   7  20
TORSDOF 3
ENDMDL
MODEL 6
REMARK VINA RESULT:      -6.7      1.641      2.697
REMARK  3 active torsions:
REMARK  status: ('A' for Active; 'I' for Inactive)
REMARK    1  A    between atoms: O2_2  and  C6_10 
REMARK    2  A    between atoms: O4_4  and  C9_13 
REMARK    3  A    between atoms: C3_7  and  C5_9 
ROOT
ATOM      1  O1  UNK     1      39.449  15.252  -0.128  1.00  0.00    -0.309 OA
ATOM      2  O3  UNK     1      42.474  14.702  -2.801  1.00  0.00    -0.287 OA
ATOM      3  C1  UNK     1      40.996  13.737  -1.230  1.00  0.00     0.081 A 
ATOM      4  C2  UNK     1      39.961  13.995  -0.333  1.00  0.00     0.095 A 
ATOM      5  C3  UNK     1      39.991  16.310  -0.841  1.00  0.00     0.090 A 
ATOM      6  C4  UNK     1      41.567  14.855  -1.995  1.00  0.00     0.190 A 
ATOM      7  C6  UNK     1      41.478  12.437  -1.398  1.00  0.00     0.085 A 
ATOM      8  C7  UNK     1      40.983  16.188  -1.737  1.00  0.00     0.094 A 
ATOM      9  C8  UNK     1      39.400  12.951   0.404  1.00  0.00     0.075 A 
ATOM     10  C9  UNK     1      39.879  11.651   0.239  1.00  0.00     0.071 A 
ATOM     11  C10 UNK     1      40.915  11.395  -0.660  1.00  0.00     0.074 A 
ENDROOT
BRANCH   5  12
ATOM     12  C5  UNK     1      39.363  17.614  -0.550  1.00  0.00    -0.002 A 
ATOM     13  C12 UNK     1      39.550  18.692  -1.419  1.00  0.00     0.014 A 
ATOM     14  C14 UNK     1      38.958  19.925  -1.145  1.00  0.00     0.001 A 
ATOM     15  C15 UNK     1      38.176  20.084  -0.001  1.00  0.00     0.000 A 
ATOM     16  C13 UNK     1      37.986  19.009   0.869  1.00  0.00     0.001 A 
ATOM     17  C11 UNK     1      38.578  17.777   0.594  1.00  0.00     0.014 A 
ENDBRANCH   5  12
BRANCH  10  18
ATOM     18  O4  UNK     1      39.333  10.630   0.956  1.00  0.00    -0.361 OA
ATOM     19  H10 UNK     1      38.457  10.903   1.276  1.00  0.00     0.217 HD
ENDBRANCH  10  18
BRANCH   7  20
ATOM     20  O2  UNK     1      42.486  12.134  -2.262  1.00  0.00    -0.360 OA
ATOM     21  H9  UNK     1      42.649  11.179  -2.273  1.00  0.00     0.217 HD
ENDBRANCH   7  20
TORSDOF 3
ENDMDL
MODEL 7
REMARK VINA RESULT:      -6.5      3.283      5.702
REMARK  3 active torsions:
REMARK  status: ('A' for Active; 'I' for Inactive)
REMARK    1  A    between atoms: O2_2  and  C6_10 
REMARK    2  A    between atoms: O4_4  and  C9_13 
REMARK    3  A    between atoms: C3_7  and  C5_9 
ROOT
ATOM      1  O1  UNK     1      39.527  18.667  -0.718  1.00  0.00    -0.309 OA
ATOM      2  O3  UNK     1      40.689  18.297  -4.606  1.00  0.00    -0.287 OA
ATOM      3  C1  UNK     1      39.927  17.233  -2.638  1.00  0.00     0.081 A 
ATOM      4  C2  UNK     1      39.540  17.430  -1.314  1.00  0.00     0.095 A 
ATOM      5  C3  UNK     1      39.924  19.765  -1.466  1.00  0.00     0.090 A 
ATOM      6  C4  UNK     1      40.340  18.396  -3.438  1.00  0.00     0.190 A 
ATOM      7  C6  UNK     1      39.921  15.952  -3.193  1.00  0.00     0.085 A 
ATOM      8  C7  UNK     1      40.311  19.704  -2.751  1.00  0.00     0.094 A 
ATOM      9  C8  UNK     1      39.142  16.344  -0.535  1.00  0.00     0.075 A 
ATOM     10  C9  UNK     1      39.135  15.062  -1.085  1.00  0.00     0.071 A 
ATOM     11  C10 UNK     1      39.523  14.867  -2.411  1.00  0.00     0.074 A 
ENDROOT
BRANCH   5  12
ATOM     12  C5  UNK     1      39.866  21.044  -0.732  1.00  0.00    -0.002 A 
ATOM     13  C12 UNK     1      40.440  22.194  -1.281  1.00  0.00     0.014 A 
ATOM     14  C14 UNK     1      40.386  23.404  -0.588  1.00  0.00     0.001 A 
ATOM     15  C15 UNK     1      39.758  23.467   0.656  1.00  0.00     0.000 A 
ATOM     16  C13 UNK     1      39.184  22.321   1.207  1.00  0.00     0.001 A 
ATOM     17  C11 UNK     1      39.238  21.112   0.514  1.00  0.00     0.014 A 
ENDBRANCH   5  12
BRANCH  10  18
ATOM     18  O4  UNK     1      38.746  14.000  -0.326  1.00  0.00    -0.361 OA
ATOM     19  H10 UNK     1      38.977  13.178  -0.792  1.00  0.00     0.217 HD
ENDBRANCH  10  18
BRANCH   7  20
ATOM     20  O2  UNK     1      40.289  15.707  -4.481  1.00  0.00    -0.360 OA
ATOM     21  H9  UNK     1      41.150  15.262  -4.510  1.00  0.00     0.217 HD
ENDBRANCH   7  20
TORSDOF 3
ENDMDL
MODEL 8
REMARK VINA RESULT:      -6.0     15.016     16.924
REMARK  3 active torsions:
REMARK  status: ('A' for Active; 'I' for Inactive)
REMARK    1  A    between atoms: O2_2  and  C6_10 
REMARK    2  A    between atoms: O4_4  and  C9_13 
REMARK    3  A    between atoms: C3_7  and  C5_9 
ROOT
ATOM      1  O1  UNK     1      43.996   0.074   8.972  1.00  0.00    -0.309 OA
ATOM      2  O3  UNK     1      40.961   2.246   7.337  1.00  0.00    -0.287 OA
ATOM      3  C1  UNK     1      41.609   0.387   8.644  1.00  0.00     0.081 A 
ATOM      4  C2  UNK     1      42.693  -0.309   9.175  1.00  0.00     0.095 A 
ATOM      5  C3  UNK     1      44.241   1.198   8.200  1.00  0.00     0.090 A 
ATOM      6  C4  UNK     1      41.864   1.586   7.832  1.00  0.00     0.190 A 
ATOM      7  C6  UNK     1      40.304  -0.049   8.883  1.00  0.00     0.085 A 
ATOM      8  C7  UNK     1      43.282   1.955   7.641  1.00  0.00     0.094 A 
ATOM      9  C8  UNK     1      42.479  -1.449   9.951  1.00  0.00     0.075 A 
ATOM     10  C9  UNK     1      41.177  -1.888  10.192  1.00  0.00     0.071 A 
ATOM     11  C10 UNK     1      40.092  -1.189   9.660  1.00  0.00     0.074 A 
ENDROOT
BRANCH   5  12
ATOM     12  C5  UNK     1      45.672   1.525   8.051  1.00  0.00    -0.002 A 
ATOM     13  C12 UNK     1      46.103   2.324   6.988  1.00  0.00     0.014 A 
ATOM     14  C14 UNK     1      47.457   2.632   6.847  1.00  0.00     0.001 A 
ATOM     15  C15 UNK     1      48.383   2.144   7.768  1.00  0.00     0.000 A 
ATOM     16  C13 UNK     1      47.957   1.346   8.830  1.00  0.00     0.001 A 
ATOM     17  C11 UNK     1      46.604   1.038   8.972  1.00  0.00     0.014 A 
ENDBRANCH   5  12
BRANCH  10  18
ATOM     18  O4  UNK     1      40.964  -2.999  10.950  1.00  0.00    -0.361 OA
ATOM     19  H10 UNK     1      41.509  -2.942  11.752  1.00  0.00     0.217 HD
ENDBRANCH  10  18
BRANCH   7  20
ATOM     20  O2  UNK     1      39.212   0.596   8.388  1.00  0.00    -0.360 OA
ATOM     21  H9  UNK     1      39.482   1.357   7.852  1.00  0.00     0.217 HD
ENDBRANCH   7  20
TORSDOF 3
ENDMDL
MODEL 9
REMARK VINA RESULT:      -6.0     14.552     16.782
REMARK  3 active torsions:
REMARK  status: ('A' for Active; 'I' for Inactive)
REMARK    1  A    between atoms: O2_2  and  C6_10 
REMARK    2  A    between atoms: O4_4  and  C9_13 
REMARK    3  A    between atoms: C3_7  and  C5_9 
ROOT
ATOM      1  O1  UNK     1      43.313   1.517   7.912  1.00  0.00    -0.309 OA
ATOM      2  O3  UNK     1      42.042  -1.241  10.628  1.00  0.00    -0.287 OA
ATOM      3  C1  UNK     1      41.469   0.337   8.965  1.00  0.00     0.081 A 
ATOM      4  C2  UNK     1      41.971   1.265   8.055  1.00  0.00     0.095 A 
ATOM      5  C3  UNK     1      44.204   0.821   8.713  1.00  0.00     0.090 A 
ATOM      6  C4  UNK     1      42.412  -0.410   9.810  1.00  0.00     0.190 A 
ATOM      7  C6  UNK     1      40.093   0.122   9.068  1.00  0.00     0.085 A 
ATOM      8  C7  UNK     1      43.844  -0.102   9.620  1.00  0.00     0.094 A 
ATOM      9  C8  UNK     1      41.098   1.986   7.240  1.00  0.00     0.075 A 
ATOM     10  C9  UNK     1      39.722   1.774   7.340  1.00  0.00     0.071 A 
ATOM     11  C10 UNK     1      39.222   0.844   8.252  1.00  0.00     0.074 A 
ENDROOT
BRANCH   5  12
ATOM     12  C5  UNK     1      45.620   1.162   8.473  1.00  0.00    -0.002 A 
ATOM     13  C12 UNK     1      45.981   1.905   7.346  1.00  0.00     0.014 A 
ATOM     14  C14 UNK     1      47.320   2.228   7.118  1.00  0.00     0.001 A 
ATOM     15  C15 UNK     1      48.301   1.810   8.016  1.00  0.00     0.000 A 
ATOM     16  C13 UNK     1      47.944   1.067   9.142  1.00  0.00     0.001 A 
ATOM     17  C11 UNK     1      46.606   0.745   9.370  1.00  0.00     0.014 A 
ENDBRANCH   5  12
BRANCH  10  18
ATOM     18  O4  UNK     1      38.867   2.475   6.545  1.00  0.00    -0.361 OA
ATOM     19  H10 UNK     1      39.348   2.779   5.757  1.00  0.00     0.217 HD
ENDBRANCH  10  18
BRANCH   7  20
ATOM     20  O2  UNK     1      39.553  -0.774   9.941  1.00  0.00    -0.360 OA
ATOM     21  H9  UNK     1      39.446  -1.639   9.517  1.00  0.00     0.217 HD
ENDBRANCH   7  20
TORSDOF 3
ENDMDL
MODEL 10
REMARK VINA RESULT:      -6.0     14.732     16.409
REMARK  3 active torsions:
REMARK  status: ('A' for Active; 'I' for Inactive)
REMARK    1  A    between atoms: O2_2  and  C6_10 
REMARK    2  A    between atoms: O4_4  and  C9_13 
REMARK    3  A    between atoms: C3_7  and  C5_9 
ROOT
ATOM      1  O1  UNK     1      43.575   1.338   8.454  1.00  0.00    -0.309 OA
ATOM      2  O3  UNK     1      42.721   4.751  10.507  1.00  0.00    -0.287 OA
ATOM      3  C1  UNK     1      41.922   2.956   9.195  1.00  0.00     0.081 A 
ATOM      4  C2  UNK     1      42.283   1.796   8.512  1.00  0.00     0.095 A 
ATOM      5  C3  UNK     1      44.564   2.066   9.097  1.00  0.00     0.090 A 
ATOM      6  C4  UNK     1      42.967   3.726   9.887  1.00  0.00     0.190 A 
ATOM      7  C6  UNK     1      40.590   3.375   9.221  1.00  0.00     0.085 A 
ATOM      8  C7  UNK     1      44.341   3.193   9.792  1.00  0.00     0.094 A 
ATOM      9  C8  UNK     1      41.311   1.046   7.850  1.00  0.00     0.075 A 
ATOM     10  C9  UNK     1      39.979   1.461   7.873  1.00  0.00     0.071 A 
ATOM     11  C10 UNK     1      39.620   2.623   8.558  1.00  0.00     0.074 A 
ENDROOT
BRANCH   5  12
ATOM     12  C5  UNK     1      45.914   1.482   8.977  1.00  0.00    -0.002 A 
ATOM     13  C12 UNK     1      46.327   0.481   9.860  1.00  0.00     0.014 A 
ATOM     14  C14 UNK     1      47.604  -0.071   9.748  1.00  0.00     0.001 A 
ATOM     15  C15 UNK     1      48.471   0.375   8.751  1.00  0.00     0.000 A 
ATOM     16  C13 UNK     1      48.062   1.374   7.867  1.00  0.00     0.001 A 
ATOM     17  C11 UNK     1      46.786   1.926   7.979  1.00  0.00     0.014 A 
ENDBRANCH   5  12
BRANCH  10  18
ATOM     18  O4  UNK     1      39.028   0.730   7.228  1.00  0.00    -0.361 OA
ATOM     19  H10 UNK     1      38.162   1.148   7.367  1.00  0.00     0.217 HD
ENDBRANCH  10  18
BRANCH   7  20
ATOM     20  O2  UNK     1      40.187   4.500   9.875  1.00  0.00    -0.360 OA
ATOM     21  H9  UNK     1      40.666   5.275   9.544  1.00  0.00     0.217 HD
ENDBRANCH   7  20
TORSDOF 3
ENDMDL
MODEL 11
REMARK VINA RESULT:      -6.0     14.550     16.763
REMARK  3 active torsions:
REMARK  status: ('A' for Active; 'I' for Inactive)
REMARK    1  A    between atoms: O2_2  and  C6_10 
REMARK    2  A    between atoms: O4_4  and  C9_13 
REMARK    3  A    between atoms: C3_7  and  C5_9 
ROOT
ATOM      1  O1  UNK     1      43.314   1.517   7.912  1.00  0.00    -0.309 OA
ATOM      2  O3  UNK     1      42.042  -1.256  10.612  1.00  0.00    -0.287 OA
ATOM      3  C1  UNK     1      41.470   0.330   8.956  1.00  0.00     0.081 A 
ATOM      4  C2  UNK     1      41.973   1.264   8.052  1.00  0.00     0.095 A 
ATOM      5  C3  UNK     1      44.205   0.817   8.711  1.00  0.00     0.090 A 
ATOM      6  C4  UNK     1      42.412  -0.420   9.799  1.00  0.00     0.190 A 
ATOM      7  C6  UNK     1      40.094   0.113   9.057  1.00  0.00     0.085 A 
ATOM      8  C7  UNK     1      43.845  -0.110   9.613  1.00  0.00     0.094 A 
ATOM      9  C8  UNK     1      41.100   1.987   7.239  1.00  0.00     0.075 A 
ATOM     10  C9  UNK     1      39.724   1.774   7.336  1.00  0.00     0.071 A 
ATOM     11  C10 UNK     1      39.223   0.839   8.243  1.00  0.00     0.074 A 
ENDROOT
BRANCH   5  12
ATOM     12  C5  UNK     1      45.621   1.161   8.474  1.00  0.00    -0.002 A 
ATOM     13  C12 UNK     1      46.605   0.737   9.372  1.00  0.00     0.014 A 
ATOM     14  C14 UNK     1      47.944   1.063   9.149  1.00  0.00     0.001 A 
ATOM     15  C15 UNK     1      48.303   1.812   8.029  1.00  0.00     0.000 A 
ATOM     16  C13 UNK     1      47.323   2.236   7.131  1.00  0.00     0.001 A 
ATOM     17  C11 UNK     1      45.985   1.911   7.353  1.00  0.00     0.014 A 
ENDBRANCH   5  12
BRANCH  10  18
ATOM     18  O4  UNK     1      38.870   2.479   6.543  1.00  0.00    -0.361 OA
ATOM     19  H10 UNK     1      37.956   2.255   6.789  1.00  0.00     0.217 HD
ENDBRANCH  10  18
BRANCH   7  20
ATOM     20  O2  UNK     1      39.554  -0.787   9.924  1.00  0.00    -0.360 OA
ATOM     21  H9  UNK     1      39.879  -1.680   9.732  1.00  0.00     0.217 HD
ENDBRANCH   7  20
TORSDOF 3
ENDMDL
MODEL 12
REMARK VINA RESULT:      -6.0     14.760     16.691
REMARK  3 active torsions:
REMARK  status: ('A' for Active; 'I' for Inactive)
REMARK    1  A    between atoms: O2_2  and  C6_10 
REMARK    2  A    between atoms: O4_4  and  C9_13 
REMARK    3  A    between atoms: C3_7  and  C5_9 
ROOT
ATOM      1  O1  UNK     1      44.904   1.849   7.535  1.00  0.00    -0.309 OA
ATOM      2  O3  UNK     1      46.778   0.371  10.837  1.00  0.00    -0.287 OA
ATOM      3  C1  UNK     1      46.968   1.492   8.766  1.00  0.00     0.081 A 
ATOM      4  C2  UNK     1      46.264   1.975   7.664  1.00  0.00     0.095 A 
ATOM      5  C3  UNK     1      44.202   1.206   8.543  1.00  0.00     0.090 A 
ATOM      6  C4  UNK     1      46.226   0.817   9.841  1.00  0.00     0.190 A 
ATOM      7  C6  UNK     1      48.353   1.649   8.844  1.00  0.00     0.085 A 
ATOM      8  C7  UNK     1      44.765   0.704   9.654  1.00  0.00     0.094 A 
ATOM      9  C8  UNK     1      46.944   2.621   6.631  1.00  0.00     0.075 A 
ATOM     10  C9  UNK     1      48.328   2.779   6.704  1.00  0.00     0.071 A 
ATOM     11  C10 UNK     1      49.031   2.295   7.809  1.00  0.00     0.074 A 
ENDROOT
BRANCH   5  12
ATOM     12  C5  UNK     1      42.747   1.130   8.308  1.00  0.00    -0.002 A 
ATOM     13  C12 UNK     1      42.087   2.174   7.653  1.00  0.00     0.014 A 
ATOM     14  C14 UNK     1      40.711   2.104   7.431  1.00  0.00     0.001 A 
ATOM     15  C15 UNK     1      39.991   0.990   7.862  1.00  0.00     0.000 A 
ATOM     16  C13 UNK     1      40.646  -0.053   8.516  1.00  0.00     0.001 A 
ATOM     17  C11 UNK     1      42.021   0.016   8.738  1.00  0.00     0.014 A 
ENDBRANCH   5  12
BRANCH  10  18
ATOM     18  O4  UNK     1      48.994   3.410   5.698  1.00  0.00    -0.361 OA
ATOM     19  H10 UNK     1      48.363   3.633   4.993  1.00  0.00     0.217 HD
ENDBRANCH  10  18
BRANCH   7  20
ATOM     20  O2  UNK     1      49.085   1.195   9.898  1.00  0.00    -0.360 OA
ATOM     21  H9  UNK     1      49.658   1.898  10.241  1.00  0.00     0.217 HD
ENDBRANCH   7  20
TORSDOF 3
ENDMDL
MODEL 13
REMARK VINA RESULT:      -6.0     13.188     15.001
REMARK  3 active torsions:
REMARK  status: ('A' for Active; 'I' for Inactive)
REMARK    1  A    between atoms: O2_2  and  C6_10 
REMARK    2  A    between atoms: O4_4  and  C9_13 
REMARK    3  A    between atoms: C3_7  and  C5_9 
ROOT
ATOM      1  O1  UNK     1      38.856  22.216  11.006  1.00  0.00    -0.309 OA
ATOM      2  O3  UNK     1      37.585  19.782  14.016  1.00  0.00    -0.287 OA
ATOM      3  C1  UNK     1      39.212  20.232  12.362  1.00  0.00     0.081 A 
ATOM      4  C2  UNK     1      39.589  21.106  11.344  1.00  0.00     0.095 A 
ATOM      5  C3  UNK     1      37.685  22.472  11.703  1.00  0.00     0.090 A 
ATOM      6  C4  UNK     1      37.976  20.505  13.110  1.00  0.00     0.190 A 
ATOM      7  C6  UNK     1      39.998  19.117  12.664  1.00  0.00     0.085 A 
ATOM      8  C7  UNK     1      37.221  21.709  12.706  1.00  0.00     0.094 A 
ATOM      9  C8  UNK     1      40.758  20.872  10.621  1.00  0.00     0.075 A 
ATOM     10  C9  UNK     1      41.546  19.759  10.919  1.00  0.00     0.071 A 
ATOM     11  C10 UNK     1      41.167  18.885  11.938  1.00  0.00     0.074 A 
ENDROOT
BRANCH   5  12
ATOM     12  C5  UNK     1      36.979  23.691  11.264  1.00  0.00    -0.002 A 
ATOM     13  C12 UNK     1      37.355  24.939  11.767  1.00  0.00     0.014 A 
ATOM     14  C14 UNK     1      36.687  26.093  11.352  1.00  0.00     0.001 A 
ATOM     15  C15 UNK     1      35.642  26.001  10.433  1.00  0.00     0.000 A 
ATOM     16  C13 UNK     1      35.264  24.756   9.929  1.00  0.00     0.001 A 
ATOM     17  C11 UNK     1      35.931  23.604  10.343  1.00  0.00     0.014 A 
ENDBRANCH   5  12
BRANCH  10  18
ATOM     18  O4  UNK     1      42.689  19.528  10.215  1.00  0.00    -0.361 OA
ATOM     19  H10 UNK     1      42.899  18.580  10.258  1.00  0.00     0.217 HD
ENDBRANCH  10  18
BRANCH   7  20
ATOM     20  O2  UNK     1      39.672  18.235  13.648  1.00  0.00    -0.360 OA
ATOM     21  H9  UNK     1      40.329  18.262  14.360  1.00  0.00     0.217 HD
ENDBRANCH   7  20
TORSDOF 3
ENDMDL
MODEL 14
REMARK VINA RESULT:      -5.9     14.945     16.861
REMARK  3 active torsions:
REMARK  status: ('A' for Active; 'I' for Inactive)
REMARK    1  A    between atoms: O2_2  and  C6_10 
REMARK    2  A    between atoms: O4_4  and  C9_13 
REMARK    3  A    between atoms: C3_7  and  C5_9 
ROOT
ATOM      1  O1  UNK     1      41.898  -0.445   8.446  1.00  0.00    -0.309 OA
ATOM      2  O3  UNK     1      39.201   2.310   7.127  1.00  0.00    -0.287 OA
ATOM      3  C1  UNK     1      39.595   0.118   7.917  1.00  0.00     0.081 A 
ATOM      4  C2  UNK     1      40.568  -0.775   8.360  1.00  0.00     0.095 A 
ATOM      5  C3  UNK     1      42.287   0.830   8.067  1.00  0.00     0.090 A 
ATOM      6  C4  UNK     1      40.002   1.474   7.523  1.00  0.00     0.190 A 
ATOM      7  C6  UNK     1      38.255  -0.273   7.851  1.00  0.00     0.085 A 
ATOM      8  C7  UNK     1      41.444   1.780   7.630  1.00  0.00     0.094 A 
ATOM      9  C8  UNK     1      40.208  -2.067   8.742  1.00  0.00     0.075 A 
ATOM     10  C9  UNK     1      38.871  -2.462   8.678  1.00  0.00     0.071 A 
ATOM     11  C10 UNK     1      37.897  -1.566   8.234  1.00  0.00     0.074 A 
ENDROOT
BRANCH   5  12
ATOM     12  C5  UNK     1      43.735   1.082   8.204  1.00  0.00    -0.002 A 
ATOM     13  C12 UNK     1      44.443   0.537   9.278  1.00  0.00     0.014 A 
ATOM     14  C14 UNK     1      45.812   0.775   9.409  1.00  0.00     0.001 A 
ATOM     15  C15 UNK     1      46.477   1.557   8.465  1.00  0.00     0.000 A 
ATOM     16  C13 UNK     1      45.773   2.102   7.390  1.00  0.00     0.001 A 
ATOM     17  C11 UNK     1      44.405   1.864   7.260  1.00  0.00     0.014 A 
ENDBRANCH   5  12
BRANCH  10  18
ATOM     18  O4  UNK     1      38.516  -3.723   9.051  1.00  0.00    -0.361 OA
ATOM     19  H10 UNK     1      38.083  -3.684   9.920  1.00  0.00     0.217 HD
ENDBRANCH  10  18
BRANCH   7  20
ATOM     20  O2  UNK     1      37.267   0.562   7.426  1.00  0.00    -0.360 OA
ATOM     21  H9  UNK     1      36.569   0.061   6.976  1.00  0.00     0.217 HD
ENDBRANCH   7  20
TORSDOF 3
ENDMDL
MODEL 15
REMARK VINA RESULT:      -5.9     12.998     13.900
REMARK  3 active torsions:
REMARK  status: ('A' for Active; 'I' for Inactive)
REMARK    1  A    between atoms: O2_2  and  C6_10 
REMARK    2  A    between atoms: O4_4  and  C9_13 
REMARK    3  A    between atoms: C3_7  and  C5_9 
ROOT
ATOM      1  O1  UNK     1      42.719  20.846  10.609  1.00  0.00    -0.309 OA
ATOM      2  O3  UNK     1      43.763  17.202  12.101  1.00  0.00    -0.287 OA
ATOM      3  C1  UNK     1      44.467  19.253  11.163  1.00  0.00     0.081 A 
ATOM      4  C2  UNK     1      44.042  20.484  10.666  1.00  0.00     0.095 A 
ATOM      5  C3  UNK     1      41.767  19.945  11.059  1.00  0.00     0.090 A 
ATOM      6  C4  UNK     1      43.461  18.298  11.650  1.00  0.00     0.190 A 
ATOM      7  C6  UNK     1      45.827  18.937  11.197  1.00  0.00     0.085 A 
ATOM      8  C7  UNK     1      42.052  18.734  11.565  1.00  0.00     0.094 A 
ATOM      9  C8  UNK     1      44.976  21.408  10.200  1.00  0.00     0.075 A 
ATOM     10  C9  UNK     1      46.336  21.097  10.232  1.00  0.00     0.071 A 
ATOM     11  C10 UNK     1      46.760  19.864  10.730  1.00  0.00     0.074 A 
ENDROOT
BRANCH   5  12
ATOM     12  C5  UNK     1      40.379  20.438  10.959  1.00  0.00    -0.002 A 
ATOM     13  C12 UNK     1      39.487  20.241  12.017  1.00  0.00     0.014 A 
ATOM     14  C14 UNK     1      38.175  20.706  11.923  1.00  0.00     0.001 A 
ATOM     15  C15 UNK     1      37.751  21.369  10.772  1.00  0.00     0.000 A 
ATOM     16  C13 UNK     1      38.639  21.567   9.714  1.00  0.00     0.001 A 
ATOM     17  C11 UNK     1      39.950  21.103   9.808  1.00  0.00     0.014 A 
ENDBRANCH   5  12
BRANCH  10  18
ATOM     18  O4  UNK     1      47.250  21.998   9.779  1.00  0.00    -0.361 OA
ATOM     19  H10 UNK     1      47.513  21.753   8.875  1.00  0.00     0.217 HD
ENDBRANCH  10  18
BRANCH   7  20
ATOM     20  O2  UNK     1      46.293  17.749  11.674  1.00  0.00    -0.360 OA
ATOM     21  H9  UNK     1      46.261  17.736  12.642  1.00  0.00     0.217 HD
ENDBRANCH   7  20
TORSDOF 3
ENDMDL
MODEL 16
REMARK VINA RESULT:      -5.8     20.781     22.065
REMARK  3 active torsions:
REMARK  status: ('A' for Active; 'I' for Inactive)
REMARK    1  A    between atoms: O2_2  and  C6_10 
REMARK    2  A    between atoms: O4_4  and  C9_13 
REMARK    3  A    between atoms: C3_7  and  C5_9 
ROOT
ATOM      1  O1  UNK     1      56.023  -1.055   2.491  1.00  0.00    -0.309 OA
ATOM      2  O3  UNK     1      52.638  -2.260   0.571  1.00  0.00    -0.287 OA
ATOM      3  C1  UNK     1      54.893  -1.573   0.404  1.00  0.00     0.081 A 
ATOM      4  C2  UNK     1      56.016  -1.167   1.123  1.00  0.00     0.095 A 
ATOM      5  C3  UNK     1      54.860  -1.351   3.185  1.00  0.00     0.090 A 
ATOM      6  C4  UNK     1      53.660  -1.896   1.137  1.00  0.00     0.190 A 
ATOM      7  C6  UNK     1      54.943  -1.670  -0.988  1.00  0.00     0.085 A 
ATOM      8  C7  UNK     1      53.718  -1.757   2.606  1.00  0.00     0.094 A 
ATOM      9  C8  UNK     1      57.199  -0.857   0.453  1.00  0.00     0.075 A 
ATOM     10  C9  UNK     1      57.253  -0.952  -0.938  1.00  0.00     0.071 A 
ATOM     11  C10 UNK     1      56.127  -1.358  -1.656  1.00  0.00     0.074 A 
ENDROOT
BRANCH   5  12
ATOM     12  C5  UNK     1      54.979  -1.203   4.648  1.00  0.00    -0.002 A 
ATOM     13  C12 UNK     1      55.698  -0.134   5.190  1.00  0.00     0.014 A 
ATOM     14  C14 UNK     1      55.811   0.006   6.573  1.00  0.00     0.001 A 
ATOM     15  C15 UNK     1      55.206  -0.923   7.420  1.00  0.00     0.000 A 
ATOM     16  C13 UNK     1      54.488  -1.992   6.883  1.00  0.00     0.001 A 
ATOM     17  C11 UNK     1      54.374  -2.131   5.500  1.00  0.00     0.014 A 
ENDBRANCH   5  12
BRANCH  10  18
ATOM     18  O4  UNK     1      58.407  -0.650  -1.595  1.00  0.00    -0.361 OA
ATOM     19  H10 UNK     1      58.206  -0.032  -2.318  1.00  0.00     0.217 HD
ENDBRANCH  10  18
BRANCH   7  20
ATOM     20  O2  UNK     1      53.874  -2.061  -1.736  1.00  0.00    -0.360 OA
ATOM     21  H9  UNK     1      53.053  -1.971  -1.228  1.00  0.00     0.217 HD
ENDBRANCH   7  20
TORSDOF 3
ENDMDL
MODEL 17
REMARK VINA RESULT:      -5.7     15.364     17.493
REMARK  3 active torsions:
REMARK  status: ('A' for Active; 'I' for Inactive)
REMARK    1  A    between atoms: O2_2  and  C6_10 
REMARK    2  A    between atoms: O4_4  and  C9_13 
REMARK    3  A    between atoms: C3_7  and  C5_9 
ROOT
ATOM      1  O1  UNK     1      41.733   0.444   8.212  1.00  0.00    -0.309 OA
ATOM      2  O3  UNK     1      41.596  -2.630  10.882  1.00  0.00    -0.287 OA
ATOM      3  C1  UNK     1      40.420  -1.229   9.386  1.00  0.00     0.081 A 
ATOM      4  C2  UNK     1      40.538  -0.174   8.484  1.00  0.00     0.095 A 
ATOM      5  C3  UNK     1      42.870   0.002   8.871  1.00  0.00     0.090 A 
ATOM      6  C4  UNK     1      41.625  -1.708  10.080  1.00  0.00     0.190 A 
ATOM      7  C6  UNK     1      39.178  -1.821   9.624  1.00  0.00     0.085 A 
ATOM      8  C7  UNK     1      42.886  -1.008   9.755  1.00  0.00     0.094 A 
ATOM      9  C8  UNK     1      39.411   0.297   7.811  1.00  0.00     0.075 A 
ATOM     10  C9  UNK     1      38.167  -0.291   8.045  1.00  0.00     0.071 A 
ATOM     11  C10 UNK     1      38.052  -1.348   8.949  1.00  0.00     0.074 A 
ENDROOT
BRANCH   5  12
ATOM     12  C5  UNK     1      44.099   0.729   8.501  1.00  0.00    -0.002 A 
ATOM     13  C12 UNK     1      44.143   1.480   7.323  1.00  0.00     0.014 A 
ATOM     14  C14 UNK     1      45.305   2.168   6.972  1.00  0.00     0.001 A 
ATOM     15  C15 UNK     1      46.427   2.108   7.798  1.00  0.00     0.000 A 
ATOM     16  C13 UNK     1      46.387   1.359   8.975  1.00  0.00     0.001 A 
ATOM     17  C11 UNK     1      45.226   0.672   9.326  1.00  0.00     0.014 A 
ENDBRANCH   5  12
BRANCH  10  18
ATOM     18  O4  UNK     1      37.065   0.166   7.389  1.00  0.00    -0.361 OA
ATOM     19  H10 UNK     1      36.507  -0.591   7.144  1.00  0.00     0.217 HD
ENDBRANCH  10  18
BRANCH   7  20
ATOM     20  O2  UNK     1      39.011  -2.855  10.494  1.00  0.00    -0.360 OA
ATOM     21  H9  UNK     1      38.791  -2.522  11.378  1.00  0.00     0.217 HD
ENDBRANCH   7  20
TORSDOF 3
ENDMDL
MODEL 18
REMARK VINA RESULT:      -5.7     14.246     16.196
REMARK  3 active torsions:
REMARK  status: ('A' for Active; 'I' for Inactive)
REMARK    1  A    between atoms: O2_2  and  C6_10 
REMARK    2  A    between atoms: O4_4  and  C9_13 
REMARK    3  A    between atoms: C3_7  and  C5_9 
ROOT
ATOM      1  O1  UNK     1      42.169   1.078   9.463  1.00  0.00    -0.309 OA
ATOM      2  O3  UNK     1      39.016   1.009   6.884  1.00  0.00    -0.287 OA
ATOM      3  C1  UNK     1      40.430  -0.196   8.345  1.00  0.00     0.081 A 
ATOM      4  C2  UNK     1      41.514  -0.102   9.216  1.00  0.00     0.095 A 
ATOM      5  C3  UNK     1      41.737   2.223   8.812  1.00  0.00     0.090 A 
ATOM      6  C4  UNK     1      39.963   1.018   7.659  1.00  0.00     0.190 A 
ATOM      7  C6  UNK     1      39.800  -1.425   8.131  1.00  0.00     0.085 A 
ATOM      8  C7  UNK     1      40.702   2.261   7.957  1.00  0.00     0.094 A 
ATOM      9  C8  UNK     1      41.976  -1.238   9.881  1.00  0.00     0.075 A 
ATOM     10  C9  UNK     1      41.350  -2.467   9.669  1.00  0.00     0.071 A 
ATOM     11  C10 UNK     1      40.265  -2.559   8.797  1.00  0.00     0.074 A 
ENDROOT
BRANCH   5  12
ATOM     12  C5  UNK     1      42.506   3.436   9.155  1.00  0.00    -0.002 A 
ATOM     13  C12 UNK     1      41.908   4.461   9.892  1.00  0.00     0.014 A 
ATOM     14  C14 UNK     1      42.634   5.608  10.216  1.00  0.00     0.001 A 
ATOM     15  C15 UNK     1      43.960   5.732   9.805  1.00  0.00     0.000 A 
ATOM     16  C13 UNK     1      44.561   4.711   9.068  1.00  0.00     0.001 A 
ATOM     17  C11 UNK     1      43.835   3.565   8.745  1.00  0.00     0.014 A 
ENDBRANCH   5  12
BRANCH  10  18
ATOM     18  O4  UNK     1      41.798  -3.578  10.318  1.00  0.00    -0.361 OA
ATOM     19  H10 UNK     1      41.044  -4.164  10.496  1.00  0.00     0.217 HD
ENDBRANCH  10  18
BRANCH   7  20
ATOM     20  O2  UNK     1      38.738  -1.568   7.291  1.00  0.00    -0.360 OA
ATOM     21  H9  UNK     1      37.975  -1.930   7.768  1.00  0.00     0.217 HD
ENDBRANCH   7  20
TORSDOF 3
ENDMDL
