MODEL 1
REMARK VINA RESULT:      -8.2      0.000      0.000
REMARK  3 active torsions:
REMARK  status: ('A' for Active; 'I' for Inactive)
REMARK    1  A    between atoms: O2_2  and  C6_10 
REMARK    2  A    between atoms: O4_4  and  C9_13 
REMARK    3  A    between atoms: C3_7  and  C5_9 
ROOT
ATOM      1  O1  UNK     1      40.220  14.470  -0.007  1.00  0.00    -0.309 OA
ATOM      2  O3  UNK     1      41.891  11.551  -2.307  1.00  0.00    -0.287 OA
ATOM      3  C1  UNK     1      40.988  12.175  -0.214  1.00  0.00     0.081 A 
ATOM      4  C2  UNK     1      40.421  13.217   0.516  1.00  0.00     0.095 A 
ATOM      5  C3  UNK     1      40.605  14.708  -1.317  1.00  0.00     0.090 A 
ATOM      6  C4  UNK     1      41.390  12.420  -1.607  1.00  0.00     0.190 A 
ATOM      7  C6  UNK     1      41.169  10.919   0.371  1.00  0.00     0.085 A 
ATOM      8  C7  UNK     1      41.156  13.784  -2.123  1.00  0.00     0.094 A 
ATOM      9  C8  UNK     1      40.029  13.010   1.839  1.00  0.00     0.075 A 
ATOM     10  C9  UNK     1      40.208  11.757   2.427  1.00  0.00     0.071 A 
ATOM     11  C10 UNK     1      40.776  10.714   1.694  1.00  0.00     0.074 A 
ENDROOT
BRANCH   5  12
ATOM     12  C5  UNK     1      40.339  16.083  -1.782  1.00  0.00    -0.002 A 
ATOM     13  C12 UNK     1      39.772  17.019  -0.913  1.00  0.00     0.014 A 
ATOM     14  C14 UNK     1      39.519  18.320  -1.351  1.00  0.00     0.001 A 
ATOM     15  C15 UNK     1      39.833  18.688  -2.659  1.00  0.00     0.000 A 
ATOM     16  C13 UNK     1      40.399  17.756  -3.529  1.00  0.00     0.001 A 
ATOM     17  C11 UNK     1      40.652  16.457  -3.091  1.00  0.00     0.014 A 
ENDBRANCH   5  12
BRANCH  10  18
ATOM     18  O4  UNK     1      39.825  11.552   3.718  1.00  0.00    -0.361 OA
ATOM     19  H10 UNK     1      40.399  12.073   4.304  1.00  0.00     0.217 HD
ENDBRANCH  10  18
BRANCH   7  20
ATOM     20  O2  UNK     1      41.717   9.869  -0.301  1.00  0.00    -0.360 OA
ATOM     21  H9  UNK     1      41.678   9.064   0.237  1.00  0.00     0.217 HD
ENDBRANCH   7  20
TORSDOF 3
ENDMDL
MODEL 2
REMARK VINA RESULT:      -7.8      2.435      6.291
REMARK  3 active torsions:
REMARK  status: ('A' for Active; 'I' for Inactive)
REMARK    1  A    between atoms: O2_2  and  C6_10 
REMARK    2  A    between atoms: O4_4  and  C9_13 
REMARK    3  A    between atoms: C3_7  and  C5_9 
ROOT
ATOM      1  O1  UNK     1      39.749  15.646  -0.273  1.00  0.00    -0.309 OA
ATOM      2  O3  UNK     1      40.966  17.275  -3.803  1.00  0.00    -0.287 OA
ATOM      3  C1  UNK     1      39.874  17.585  -1.731  1.00  0.00     0.081 A 
ATOM      4  C2  UNK     1      39.487  16.966  -0.544  1.00  0.00     0.095 A 
ATOM      5  C3  UNK     1      40.420  14.897  -1.226  1.00  0.00     0.090 A 
ATOM      6  C4  UNK     1      40.595  16.796  -2.741  1.00  0.00     0.190 A 
ATOM      7  C6  UNK     1      39.581  18.932  -1.953  1.00  0.00     0.085 A 
ATOM      8  C7  UNK     1      40.849  15.380  -2.403  1.00  0.00     0.094 A 
ATOM      9  C8  UNK     1      38.804  17.692   0.432  1.00  0.00     0.075 A 
ATOM     10  C9  UNK     1      38.509  19.039   0.214  1.00  0.00     0.071 A 
ATOM     11  C10 UNK     1      38.898  19.657  -0.976  1.00  0.00     0.074 A 
ENDROOT
BRANCH   5  12
ATOM     12  C5  UNK     1      40.655  13.494  -0.831  1.00  0.00    -0.002 A 
ATOM     13  C12 UNK     1      40.131  13.006   0.369  1.00  0.00     0.014 A 
ATOM     14  C14 UNK     1      40.353  11.680   0.743  1.00  0.00     0.001 A 
ATOM     15  C15 UNK     1      41.099  10.838  -0.081  1.00  0.00     0.000 A 
ATOM     16  C13 UNK     1      41.624  11.322  -1.280  1.00  0.00     0.001 A 
ATOM     17  C11 UNK     1      41.402  12.647  -1.654  1.00  0.00     0.014 A 
ENDBRANCH   5  12
BRANCH  10  18
ATOM     18  O4  UNK     1      37.843  19.751   1.164  1.00  0.00    -0.361 OA
ATOM     19  H10 UNK     1      37.883  19.267   2.006  1.00  0.00     0.217 HD
ENDBRANCH  10  18
BRANCH   7  20
ATOM     20  O2  UNK     1      39.938  19.582  -3.095  1.00  0.00    -0.360 OA
ATOM     21  H9  UNK     1      39.151  19.846  -3.596  1.00  0.00     0.217 HD
ENDBRANCH   7  20
TORSDOF 3
ENDMDL
MODEL 3
REMARK VINA RESULT:      -7.8      2.427      6.382
REMARK  3 active torsions:
REMARK  status: ('A' for Active; 'I' for Inactive)
REMARK    1  A    between atoms: O2_2  and  C6_10 
REMARK    2  A    between atoms: O4_4  and  C9_13 
REMARK    3  A    between atoms: C3_7  and  C5_9 
ROOT
ATOM      1  O1  UNK     1      39.764  15.636  -0.247  1.00  0.00    -0.309 OA
ATOM      2  O3  UNK     1      40.968  17.240  -3.794  1.00  0.00    -0.287 OA
ATOM      3  C1  UNK     1      39.879  17.564  -1.721  1.00  0.00     0.081 A 
ATOM      4  C2  UNK     1      39.497  16.953  -0.528  1.00  0.00     0.095 A 
ATOM      5  C3  UNK     1      40.435  14.881  -1.196  1.00  0.00     0.090 A 
ATOM      6  C4  UNK     1      40.600  16.769  -2.726  1.00  0.00     0.190 A 
ATOM      7  C6  UNK     1      39.582  18.908  -1.954  1.00  0.00     0.085 A 
ATOM      8  C7  UNK     1      40.860  15.357  -2.378  1.00  0.00     0.094 A 
ATOM      9  C8  UNK     1      38.814  17.685   0.443  1.00  0.00     0.075 A 
ATOM     10  C9  UNK     1      38.514  19.029   0.215  1.00  0.00     0.071 A 
ATOM     11  C10 UNK     1      38.898  19.639  -0.981  1.00  0.00     0.074 A 
ENDROOT
BRANCH   5  12
ATOM     12  C5  UNK     1      40.676  13.482  -0.790  1.00  0.00    -0.002 A 
ATOM     13  C12 UNK     1      41.366  12.614  -1.640  1.00  0.00     0.014 A 
ATOM     14  C14 UNK     1      41.593  11.292  -1.258  1.00  0.00     0.001 A 
ATOM     15  C15 UNK     1      41.131  10.833  -0.024  1.00  0.00     0.000 A 
ATOM     16  C13 UNK     1      40.441  11.697   0.827  1.00  0.00     0.001 A 
ATOM     17  C11 UNK     1      40.214  13.019   0.445  1.00  0.00     0.014 A 
ENDBRANCH   5  12
BRANCH  10  18
ATOM     18  O4  UNK     1      37.848  19.747   1.161  1.00  0.00    -0.361 OA
ATOM     19  H10 UNK     1      38.033  20.692   1.027  1.00  0.00     0.217 HD
ENDBRANCH  10  18
BRANCH   7  20
ATOM     20  O2  UNK     1      39.934  19.550  -3.102  1.00  0.00    -0.360 OA
ATOM     21  H9  UNK     1      40.094  20.490  -2.930  1.00  0.00     0.217 HD
ENDBRANCH   7  20
TORSDOF 3
ENDMDL
MODEL 4
REMARK VINA RESULT:      -7.6      2.603      4.203
REMARK  3 active torsions:
REMARK  status: ('A' for Active; 'I' for Inactive)
REMARK    1  A    between atoms: O2_2  and  C6_10 
REMARK    2  A    between atoms: O4_4  and  C9_13 
REMARK    3  A    between atoms: C3_7  and  C5_9 
ROOT
ATOM      1  O1  UNK     1      40.345  17.004  -1.222  1.00  0.00    -0.309 OA
ATOM      2  O3  UNK     1      36.886  14.930  -0.643  1.00  0.00    -0.287 OA
ATOM      3  C1  UNK     1      39.194  14.866  -1.146  1.00  0.00     0.081 A 
ATOM      4  C2  UNK     1      40.341  15.636  -1.331  1.00  0.00     0.095 A 
ATOM      5  C3  UNK     1      39.153  17.646  -0.923  1.00  0.00     0.090 A 
ATOM      6  C4  UNK     1      37.930  15.543  -0.820  1.00  0.00     0.190 A 
ATOM      7  C6  UNK     1      39.249  13.476  -1.269  1.00  0.00     0.085 A 
ATOM      8  C7  UNK     1      37.986  17.016  -0.717  1.00  0.00     0.094 A 
ATOM      9  C8  UNK     1      41.553  15.019  -1.639  1.00  0.00     0.075 A 
ATOM     10  C9  UNK     1      41.613  13.630  -1.763  1.00  0.00     0.071 A 
ATOM     11  C10 UNK     1      40.463  12.861  -1.578  1.00  0.00     0.074 A 
ENDROOT
BRANCH   5  12
ATOM     12  C5  UNK     1      39.271  19.114  -0.824  1.00  0.00    -0.002 A 
ATOM     13  C12 UNK     1      38.593  19.806   0.184  1.00  0.00     0.014 A 
ATOM     14  C14 UNK     1      38.703  21.193   0.279  1.00  0.00     0.001 A 
ATOM     15  C15 UNK     1      39.491  21.894  -0.634  1.00  0.00     0.000 A 
ATOM     16  C13 UNK     1      40.169  21.207  -1.642  1.00  0.00     0.001 A 
ATOM     17  C11 UNK     1      40.059  19.820  -1.736  1.00  0.00     0.014 A 
ENDBRANCH   5  12
BRANCH  10  18
ATOM     18  O4  UNK     1      42.795  13.025  -2.063  1.00  0.00    -0.361 OA
ATOM     19  H10 UNK     1      42.631  12.083  -2.238  1.00  0.00     0.217 HD
ENDBRANCH  10  18
BRANCH   7  20
ATOM     20  O2  UNK     1      38.157  12.680  -1.098  1.00  0.00    -0.360 OA
ATOM     21  H9  UNK     1      37.351  13.216  -1.046  1.00  0.00     0.217 HD
ENDBRANCH   7  20
TORSDOF 3
ENDMDL
MODEL 5
REMARK VINA RESULT:      -7.3      2.152      6.196
REMARK  3 active torsions:
REMARK  status: ('A' for Active; 'I' for Inactive)
REMARK    1  A    between atoms: O2_2  and  C6_10 
REMARK    2  A    between atoms: O4_4  and  C9_13 
REMARK    3  A    between atoms: C3_7  and  C5_9 
ROOT
ATOM      1  O1  UNK     1      39.658  15.126   0.004  1.00  0.00    -0.309 OA
ATOM      2  O3  UNK     1      41.749  15.796  -3.428  1.00  0.00    -0.287 OA
ATOM      3  C1  UNK     1      40.213  16.618  -1.831  1.00  0.00     0.081 A 
ATOM      4  C2  UNK     1      39.529  16.324  -0.653  1.00  0.00     0.095 A 
ATOM      5  C3  UNK     1      40.501  14.166  -0.534  1.00  0.00     0.090 A 
ATOM      6  C4  UNK     1      41.115  15.605  -2.400  1.00  0.00     0.190 A 
ATOM      7  C6  UNK     1      40.043  17.855  -2.458  1.00  0.00     0.085 A 
ATOM      8  C7  UNK     1      41.218  14.332  -1.657  1.00  0.00     0.094 A 
ATOM      9  C8  UNK     1      38.669  17.268  -0.092  1.00  0.00     0.075 A 
ATOM     10  C9  UNK     1      38.496  18.505  -0.715  1.00  0.00     0.071 A 
ATOM     11  C10 UNK     1      39.182  18.797  -1.894  1.00  0.00     0.074 A 
ENDROOT
BRANCH   5  12
ATOM     12  C5  UNK     1      40.572  12.920   0.255  1.00  0.00    -0.002 A 
ATOM     13  C12 UNK     1      40.349  12.949   1.634  1.00  0.00     0.014 A 
ATOM     14  C14 UNK     1      40.416  11.771   2.380  1.00  0.00     0.001 A 
ATOM     15  C15 UNK     1      40.705  10.561   1.749  1.00  0.00     0.000 A 
ATOM     16  C13 UNK     1      40.927  10.529   0.372  1.00  0.00     0.001 A 
ATOM     17  C11 UNK     1      40.860  11.705  -0.374  1.00  0.00     0.014 A 
ENDBRANCH   5  12
BRANCH  10  18
ATOM     18  O4  UNK     1      37.657  19.429  -0.169  1.00  0.00    -0.361 OA
ATOM     19  H10 UNK     1      37.905  20.310  -0.495  1.00  0.00     0.217 HD
ENDBRANCH  10  18
BRANCH   7  20
ATOM     20  O2  UNK     1      40.689  18.190  -3.609  1.00  0.00    -0.360 OA
ATOM     21  H9  UNK     1      40.143  18.784  -4.144  1.00  0.00     0.217 HD
ENDBRANCH   7  20
TORSDOF 3
ENDMDL
MODEL 6
REMARK VINA RESULT:      -7.2      2.425      6.914
REMARK  3 active torsions:
REMARK  status: ('A' for Active; 'I' for Inactive)
REMARK    1  A    between atoms: O2_2  and  C6_10 
REMARK    2  A    between atoms: O4_4  and  C9_13 
REMARK    3  A    between atoms: C3_7  and  C5_9 
ROOT
ATOM      1  O1  UNK     1      40.730  15.128  -2.140  1.00  0.00    -0.309 OA
ATOM      2  O3  UNK     1      38.950  17.826   0.341  1.00  0.00    -0.287 OA
ATOM      3  C1  UNK     1      39.927  17.390  -1.767  1.00  0.00     0.081 A 
ATOM      4  C2  UNK     1      40.528  16.417  -2.564  1.00  0.00     0.095 A 
ATOM      5  C3  UNK     1      40.324  14.782  -0.860  1.00  0.00     0.090 A 
ATOM      6  C4  UNK     1      39.487  17.025  -0.412  1.00  0.00     0.190 A 
ATOM      7  C6  UNK     1      39.746  18.688  -2.251  1.00  0.00     0.085 A 
ATOM      8  C7  UNK     1      39.729  15.626  -0.002  1.00  0.00     0.094 A 
ATOM      9  C8  UNK     1      40.952  16.737  -3.853  1.00  0.00     0.075 A 
ATOM     10  C9  UNK     1      40.774  18.032  -4.341  1.00  0.00     0.071 A 
ATOM     11  C10 UNK     1      40.172  19.005  -3.541  1.00  0.00     0.074 A 
ENDROOT
BRANCH   5  12
ATOM     12  C5  UNK     1      40.582  13.372  -0.509  1.00  0.00    -0.002 A 
ATOM     13  C12 UNK     1      40.145  12.863   0.717  1.00  0.00     0.014 A 
ATOM     14  C14 UNK     1      40.389  11.530   1.051  1.00  0.00     0.001 A 
ATOM     15  C15 UNK     1      41.070  10.702   0.159  1.00  0.00     0.000 A 
ATOM     16  C13 UNK     1      41.508  11.207  -1.066  1.00  0.00     0.001 A 
ATOM     17  C11 UNK     1      41.264  12.539  -1.399  1.00  0.00     0.014 A 
ENDBRANCH   5  12
BRANCH  10  18
ATOM     18  O4  UNK     1      41.187  18.347  -5.600  1.00  0.00    -0.361 OA
ATOM     19  H10 UNK     1      40.500  18.883  -6.032  1.00  0.00     0.217 HD
ENDBRANCH  10  18
BRANCH   7  20
ATOM     20  O2  UNK     1      39.164  19.672  -1.512  1.00  0.00    -0.360 OA
ATOM     21  H9  UNK     1      39.543  19.696  -0.620  1.00  0.00     0.217 HD
ENDBRANCH   7  20
TORSDOF 3
ENDMDL
MODEL 7
REMARK VINA RESULT:      -6.7      1.640      2.696
REMARK  3 active torsions:
REMARK  status: ('A' for Active; 'I' for Inactive)
REMARK    1  A    between atoms: O2_2  and  C6_10 
REMARK    2  A    between atoms: O4_4  and  C9_13 
REMARK    3  A    between atoms: C3_7  and  C5_9 
ROOT
ATOM      1  O1  UNK     1      39.449  15.251  -0.128  1.00  0.00    -0.309 OA
ATOM      2  O3  UNK     1      42.475  14.701  -2.801  1.00  0.00    -0.287 OA
ATOM      3  C1  UNK     1      40.996  13.737  -1.230  1.00  0.00     0.081 A 
ATOM      4  C2  UNK     1      39.961  13.995  -0.332  1.00  0.00     0.095 A 
ATOM      5  C3  UNK     1      39.991  16.310  -0.841  1.00  0.00     0.090 A 
ATOM      6  C4  UNK     1      41.567  14.855  -1.995  1.00  0.00     0.190 A 
ATOM      7  C6  UNK     1      41.478  12.436  -1.397  1.00  0.00     0.085 A 
ATOM      8  C7  UNK     1      40.984  16.187  -1.737  1.00  0.00     0.094 A 
ATOM      9  C8  UNK     1      39.400  12.951   0.404  1.00  0.00     0.075 A 
ATOM     10  C9  UNK     1      39.879  11.651   0.240  1.00  0.00     0.071 A 
ATOM     11  C10 UNK     1      40.915  11.395  -0.659  1.00  0.00     0.074 A 
ENDROOT
BRANCH   5  12
ATOM     12  C5  UNK     1      39.364  17.614  -0.550  1.00  0.00    -0.002 A 
ATOM     13  C12 UNK     1      39.551  18.691  -1.420  1.00  0.00     0.014 A 
ATOM     14  C14 UNK     1      38.958  19.925  -1.145  1.00  0.00     0.001 A 
ATOM     15  C15 UNK     1      38.177  20.084  -0.001  1.00  0.00     0.000 A 
ATOM     16  C13 UNK     1      37.988  19.010   0.869  1.00  0.00     0.001 A 
ATOM     17  C11 UNK     1      38.580  17.777   0.595  1.00  0.00     0.014 A 
ENDBRANCH   5  12
BRANCH  10  18
ATOM     18  O4  UNK     1      39.332  10.630   0.957  1.00  0.00    -0.361 OA
ATOM     19  H10 UNK     1      38.962   9.976   0.341  1.00  0.00     0.217 HD
ENDBRANCH  10  18
BRANCH   7  20
ATOM     20  O2  UNK     1      42.486  12.133  -2.262  1.00  0.00    -0.360 OA
ATOM     21  H9  UNK     1      43.318  12.531  -1.965  1.00  0.00     0.217 HD
ENDBRANCH   7  20
TORSDOF 3
ENDMDL
MODEL 8
REMARK VINA RESULT:      -6.5      3.310      5.739
REMARK  3 active torsions:
REMARK  status: ('A' for Active; 'I' for Inactive)
REMARK    1  A    between atoms: O2_2  and  C6_10 
REMARK    2  A    between atoms: O4_4  and  C9_13 
REMARK    3  A    between atoms: C3_7  and  C5_9 
ROOT
ATOM      1  O1  UNK     1      39.522  18.724  -0.707  1.00  0.00    -0.309 OA
ATOM      2  O3  UNK     1      40.717  18.338  -4.583  1.00  0.00    -0.287 OA
ATOM      3  C1  UNK     1      39.935  17.283  -2.618  1.00  0.00     0.081 A 
ATOM      4  C2  UNK     1      39.537  17.486  -1.298  1.00  0.00     0.095 A 
ATOM      5  C3  UNK     1      39.927  19.818  -1.456  1.00  0.00     0.090 A 
ATOM      6  C4  UNK     1      40.358  18.442  -3.418  1.00  0.00     0.190 A 
ATOM      7  C6  UNK     1      39.931  15.999  -3.168  1.00  0.00     0.085 A 
ATOM      8  C7  UNK     1      40.326  19.752  -2.736  1.00  0.00     0.094 A 
ATOM      9  C8  UNK     1      39.130  16.403  -0.518  1.00  0.00     0.075 A 
ATOM     10  C9  UNK     1      39.125  15.119  -1.063  1.00  0.00     0.071 A 
ATOM     11  C10 UNK     1      39.524  14.918  -2.386  1.00  0.00     0.074 A 
ENDROOT
BRANCH   5  12
ATOM     12  C5  UNK     1      39.866  21.101  -0.727  1.00  0.00    -0.002 A 
ATOM     13  C12 UNK     1      40.390  22.261  -1.303  1.00  0.00     0.014 A 
ATOM     14  C14 UNK     1      40.333  23.473  -0.615  1.00  0.00     0.001 A 
ATOM     15  C15 UNK     1      39.751  23.529   0.651  1.00  0.00     0.000 A 
ATOM     16  C13 UNK     1      39.227  22.373   1.230  1.00  0.00     0.001 A 
ATOM     17  C11 UNK     1      39.284  21.161   0.542  1.00  0.00     0.014 A 
ENDBRANCH   5  12
BRANCH  10  18
ATOM     18  O4  UNK     1      38.727  14.060  -0.305  1.00  0.00    -0.361 OA
ATOM     19  H10 UNK     1      37.757  14.003  -0.328  1.00  0.00     0.217 HD
ENDBRANCH  10  18
BRANCH   7  20
ATOM     20  O2  UNK     1      40.310  15.749  -4.452  1.00  0.00    -0.360 OA
ATOM     21  H9  UNK     1      40.646  16.556  -4.870  1.00  0.00     0.217 HD
ENDBRANCH   7  20
TORSDOF 3
ENDMDL
MODEL 9
REMARK VINA RESULT:      -6.0     14.549     16.793
REMARK  3 active torsions:
REMARK  status: ('A' for Active; 'I' for Inactive)
REMARK    1  A    between atoms: O2_2  and  C6_10 
REMARK    2  A    between atoms: O4_4  and  C9_13 
REMARK    3  A    between atoms: C3_7  and  C5_9 
ROOT
ATOM      1  O1  UNK     1      43.196   1.474   7.897  1.00  0.00    -0.309 OA
ATOM      2  O3  UNK     1      41.887  -1.352  10.524  1.00  0.00    -0.287 OA
ATOM      3  C1  UNK     1      41.337   0.269   8.895  1.00  0.00     0.081 A 
ATOM      4  C2  UNK     1      41.852   1.221   8.016  1.00  0.00     0.095 A 
ATOM      5  C3  UNK     1      44.076   0.757   8.692  1.00  0.00     0.090 A 
ATOM      6  C4  UNK     1      42.268  -0.500   9.733  1.00  0.00     0.190 A 
ATOM      7  C6  UNK     1      39.959   0.053   8.974  1.00  0.00     0.085 A 
ATOM      8  C7  UNK     1      43.703  -0.189   9.570  1.00  0.00     0.094 A 
ATOM      9  C8  UNK     1      40.991   1.963   7.209  1.00  0.00     0.075 A 
ATOM     10  C9  UNK     1      39.613   1.750   7.285  1.00  0.00     0.071 A 
ATOM     11  C10 UNK     1      39.100   0.797   8.165  1.00  0.00     0.074 A 
ENDROOT
BRANCH   5  12
ATOM     12  C5  UNK     1      45.495   1.103   8.480  1.00  0.00    -0.002 A 
ATOM     13  C12 UNK     1      45.876   1.847   7.360  1.00  0.00     0.014 A 
ATOM     14  C14 UNK     1      47.217   2.174   7.158  1.00  0.00     0.001 A 
ATOM     15  C15 UNK     1      48.182   1.759   8.076  1.00  0.00     0.000 A 
ATOM     16  C13 UNK     1      47.805   1.016   9.196  1.00  0.00     0.001 A 
ATOM     17  C11 UNK     1      46.465   0.689   9.397  1.00  0.00     0.014 A 
ENDBRANCH   5  12
BRANCH  10  18
ATOM     18  O4  UNK     1      38.770   2.473   6.497  1.00  0.00    -0.361 OA
ATOM     19  H10 UNK     1      39.296   3.032   5.901  1.00  0.00     0.217 HD
ENDBRANCH  10  18
BRANCH   7  20
ATOM     20  O2  UNK     1      39.408  -0.865   9.816  1.00  0.00    -0.360 OA
ATOM     21  H9  UNK     1      39.893  -0.892  10.654  1.00  0.00     0.217 HD
ENDBRANCH   7  20
TORSDOF 3
ENDMDL
MODEL 10
REMARK VINA RESULT:      -6.0     15.017     16.923
REMARK  3 active torsions:
REMARK  status: ('A' for Active; 'I' for Inactive)
REMARK    1  A    between atoms: O2_2  and  C6_10 
REMARK    2  A    between atoms: O4_4  and  C9_13 
REMARK    3  A    between atoms: C3_7  and  C5_9 
ROOT
ATOM      1  O1  UNK     1      44.007   0.081   8.980  1.00  0.00    -0.309 OA
ATOM      2  O3  UNK     1      40.970   2.218   7.304  1.00  0.00    -0.287 OA
ATOM      3  C1  UNK     1      41.621   0.377   8.635  1.00  0.00     0.081 A 
ATOM      4  C2  UNK     1      42.706  -0.307   9.180  1.00  0.00     0.095 A 
ATOM      5  C3  UNK     1      44.250   1.198   8.196  1.00  0.00     0.090 A 
ATOM      6  C4  UNK     1      41.874   1.568   7.811  1.00  0.00     0.190 A 
ATOM      7  C6  UNK     1      40.316  -0.063   8.872  1.00  0.00     0.085 A 
ATOM      8  C7  UNK     1      43.291   1.943   7.623  1.00  0.00     0.094 A 
ATOM      9  C8  UNK     1      42.493  -1.438   9.968  1.00  0.00     0.075 A 
ATOM     10  C9  UNK     1      41.191  -1.882  10.206  1.00  0.00     0.071 A 
ATOM     11  C10 UNK     1      40.106  -1.195   9.660  1.00  0.00     0.074 A 
ENDROOT
BRANCH   5  12
ATOM     12  C5  UNK     1      45.681   1.530   8.052  1.00  0.00    -0.002 A 
ATOM     13  C12 UNK     1      46.111   2.338   6.996  1.00  0.00     0.014 A 
ATOM     14  C14 UNK     1      47.464   2.652   6.858  1.00  0.00     0.001 A 
ATOM     15  C15 UNK     1      48.391   2.160   7.777  1.00  0.00     0.000 A 
ATOM     16  C13 UNK     1      47.965   1.353   8.833  1.00  0.00     0.001 A 
ATOM     17  C11 UNK     1      46.613   1.039   8.970  1.00  0.00     0.014 A 
ENDBRANCH   5  12
BRANCH  10  18
ATOM     18  O4  UNK     1      40.980  -2.986  10.976  1.00  0.00    -0.361 OA
ATOM     19  H10 UNK     1      41.263  -3.773  10.481  1.00  0.00     0.217 HD
ENDBRANCH  10  18
BRANCH   7  20
ATOM     20  O2  UNK     1      39.224   0.571   8.363  1.00  0.00    -0.360 OA
ATOM     21  H9  UNK     1      38.411   0.204   8.742  1.00  0.00     0.217 HD
ENDBRANCH   7  20
TORSDOF 3
ENDMDL
MODEL 11
REMARK VINA RESULT:      -6.0     14.732     16.438
REMARK  3 active torsions:
REMARK  status: ('A' for Active; 'I' for Inactive)
REMARK    1  A    between atoms: O2_2  and  C6_10 
REMARK    2  A    between atoms: O4_4  and  C9_13 
REMARK    3  A    between atoms: C3_7  and  C5_9 
ROOT
ATOM      1  O1  UNK     1      43.573   1.333   8.457  1.00  0.00    -0.309 OA
ATOM      2  O3  UNK     1      42.721   4.747  10.511  1.00  0.00    -0.287 OA
ATOM      3  C1  UNK     1      41.921   2.953   9.197  1.00  0.00     0.081 A 
ATOM      4  C2  UNK     1      42.281   1.793   8.514  1.00  0.00     0.095 A 
ATOM      5  C3  UNK     1      44.562   2.060   9.102  1.00  0.00     0.090 A 
ATOM      6  C4  UNK     1      42.965   3.722   9.890  1.00  0.00     0.190 A 
ATOM      7  C6  UNK     1      40.589   3.375   9.222  1.00  0.00     0.085 A 
ATOM      8  C7  UNK     1      44.340   3.187   9.797  1.00  0.00     0.094 A 
ATOM      9  C8  UNK     1      41.309   1.045   7.850  1.00  0.00     0.075 A 
ATOM     10  C9  UNK     1      39.978   1.462   7.871  1.00  0.00     0.071 A 
ATOM     11  C10 UNK     1      39.619   2.624   8.557  1.00  0.00     0.074 A 
ENDROOT
BRANCH   5  12
ATOM     12  C5  UNK     1      45.911   1.474   8.984  1.00  0.00    -0.002 A 
ATOM     13  C12 UNK     1      46.787   1.924   7.992  1.00  0.00     0.014 A 
ATOM     14  C14 UNK     1      48.063   1.370   7.879  1.00  0.00     0.001 A 
ATOM     15  C15 UNK     1      48.467   0.366   8.757  1.00  0.00     0.000 A 
ATOM     16  C13 UNK     1      47.595  -0.086   9.749  1.00  0.00     0.001 A 
ATOM     17  C11 UNK     1      46.320   0.467   9.862  1.00  0.00     0.014 A 
ENDBRANCH   5  12
BRANCH  10  18
ATOM     18  O4  UNK     1      39.026   0.733   7.225  1.00  0.00    -0.361 OA
ATOM     19  H10 UNK     1      39.461   0.025   6.720  1.00  0.00     0.217 HD
ENDBRANCH  10  18
BRANCH   7  20
ATOM     20  O2  UNK     1      40.188   4.500   9.875  1.00  0.00    -0.360 OA
ATOM     21  H9  UNK     1      40.709   5.265   9.587  1.00  0.00     0.217 HD
ENDBRANCH   7  20
TORSDOF 3
ENDMDL
MODEL 12
REMARK VINA RESULT:      -6.0     14.550     16.763
REMARK  3 active torsions:
REMARK  status: ('A' for Active; 'I' for Inactive)
REMARK    1  A    between atoms: O2_2  and  C6_10 
REMARK    2  A    between atoms: O4_4  and  C9_13 
REMARK    3  A    between atoms: C3_7  and  C5_9 
ROOT
ATOM      1  O1  UNK     1      43.314   1.517   7.912  1.00  0.00    -0.309 OA
ATOM      2  O3  UNK     1      42.042  -1.257  10.612  1.00  0.00    -0.287 OA
ATOM      3  C1  UNK     1      41.470   0.330   8.956  1.00  0.00     0.081 A 
ATOM      4  C2  UNK     1      41.973   1.264   8.052  1.00  0.00     0.095 A 
ATOM      5  C3  UNK     1      44.205   0.817   8.711  1.00  0.00     0.090 A 
ATOM      6  C4  UNK     1      42.412  -0.421   9.799  1.00  0.00     0.190 A 
ATOM      7  C6  UNK     1      40.094   0.113   9.056  1.00  0.00     0.085 A 
ATOM      8  C7  UNK     1      43.845  -0.110   9.613  1.00  0.00     0.094 A 
ATOM      9  C8  UNK     1      41.100   1.988   7.239  1.00  0.00     0.075 A 
ATOM     10  C9  UNK     1      39.725   1.774   7.336  1.00  0.00     0.071 A 
ATOM     11  C10 UNK     1      39.223   0.839   8.242  1.00  0.00     0.074 A 
ENDROOT
BRANCH   5  12
ATOM     12  C5  UNK     1      45.621   1.161   8.475  1.00  0.00    -0.002 A 
ATOM     13  C12 UNK     1      46.605   0.737   9.372  1.00  0.00     0.014 A 
ATOM     14  C14 UNK     1      47.944   1.062   9.150  1.00  0.00     0.001 A 
ATOM     15  C15 UNK     1      48.303   1.812   8.030  1.00  0.00     0.000 A 
ATOM     16  C13 UNK     1      47.323   2.237   7.132  1.00  0.00     0.001 A 
ATOM     17  C11 UNK     1      45.985   1.912   7.354  1.00  0.00     0.014 A 
ENDBRANCH   5  12
BRANCH  10  18
ATOM     18  O4  UNK     1      38.870   2.479   6.543  1.00  0.00    -0.361 OA
ATOM     19  H10 UNK     1      38.061   1.957   6.410  1.00  0.00     0.217 HD
ENDBRANCH  10  18
BRANCH   7  20
ATOM     20  O2  UNK     1      39.554  -0.788   9.923  1.00  0.00    -0.360 OA
ATOM     21  H9  UNK     1      38.632  -0.975   9.688  1.00  0.00     0.217 HD
ENDBRANCH   7  20
TORSDOF 3
ENDMDL
MODEL 13
REMARK VINA RESULT:      -6.0     14.774     16.702
REMARK  3 active torsions:
REMARK  status: ('A' for Active; 'I' for Inactive)
REMARK    1  A    between atoms: O2_2  and  C6_10 
REMARK    2  A    between atoms: O4_4  and  C9_13 
REMARK    3  A    between atoms: C3_7  and  C5_9 
ROOT
ATOM      1  O1  UNK     1      44.905   1.840   7.549  1.00  0.00    -0.309 OA
ATOM      2  O3  UNK     1      46.761   0.396  10.876  1.00  0.00    -0.287 OA
ATOM      3  C1  UNK     1      46.962   1.499   8.796  1.00  0.00     0.081 A 
ATOM      4  C2  UNK     1      46.264   1.970   7.685  1.00  0.00     0.095 A 
ATOM      5  C3  UNK     1      44.198   1.204   8.558  1.00  0.00     0.090 A 
ATOM      6  C4  UNK     1      46.215   0.832   9.873  1.00  0.00     0.190 A 
ATOM      7  C6  UNK     1      48.347   1.660   8.881  1.00  0.00     0.085 A 
ATOM      8  C7  UNK     1      44.755   0.714   9.678  1.00  0.00     0.094 A 
ATOM      9  C8  UNK     1      46.949   2.608   6.651  1.00  0.00     0.075 A 
ATOM     10  C9  UNK     1      48.332   2.771   6.732  1.00  0.00     0.071 A 
ATOM     11  C10 UNK     1      49.029   2.298   7.845  1.00  0.00     0.074 A 
ENDROOT
BRANCH   5  12
ATOM     12  C5  UNK     1      42.745   1.123   8.314  1.00  0.00    -0.002 A 
ATOM     13  C12 UNK     1      42.082   2.173   7.673  1.00  0.00     0.014 A 
ATOM     14  C14 UNK     1      40.707   2.098   7.443  1.00  0.00     0.001 A 
ATOM     15  C15 UNK     1      39.992   0.973   7.852  1.00  0.00     0.000 A 
ATOM     16  C13 UNK     1      40.651  -0.077   8.493  1.00  0.00     0.001 A 
ATOM     17  C11 UNK     1      42.024  -0.002   8.723  1.00  0.00     0.014 A 
ENDBRANCH   5  12
BRANCH  10  18
ATOM     18  O4  UNK     1      49.004   3.394   5.724  1.00  0.00    -0.361 OA
ATOM     19  H10 UNK     1      49.844   2.931   5.571  1.00  0.00     0.217 HD
ENDBRANCH  10  18
BRANCH   7  20
ATOM     20  O2  UNK     1      49.073   1.217   9.945  1.00  0.00    -0.360 OA
ATOM     21  H9  UNK     1      49.756   0.595   9.654  1.00  0.00     0.217 HD
ENDBRANCH   7  20
TORSDOF 3
ENDMDL
MODEL 14
REMARK VINA RESULT:      -6.0     13.194     15.000
REMARK  3 active torsions:
REMARK  status: ('A' for Active; 'I' for Inactive)
REMARK    1  A    between atoms: O2_2  and  C6_10 
REMARK    2  A    between atoms: O4_4  and  C9_13 
REMARK    3  A    between atoms: C3_7  and  C5_9 
ROOT
ATOM      1  O1  UNK     1      38.857  22.218  11.006  1.00  0.00    -0.309 OA
ATOM      2  O3  UNK     1      37.590  19.776  14.011  1.00  0.00    -0.287 OA
ATOM      3  C1  UNK     1      39.217  20.233  12.359  1.00  0.00     0.081 A 
ATOM      4  C2  UNK     1      39.593  21.110  11.343  1.00  0.00     0.095 A 
ATOM      5  C3  UNK     1      37.684  22.469  11.701  1.00  0.00     0.090 A 
ATOM      6  C4  UNK     1      37.979  20.501  13.106  1.00  0.00     0.190 A 
ATOM      7  C6  UNK     1      40.006  19.121  12.661  1.00  0.00     0.085 A 
ATOM      8  C7  UNK     1      37.221  21.703  12.703  1.00  0.00     0.094 A 
ATOM      9  C8  UNK     1      40.764  20.880  10.621  1.00  0.00     0.075 A 
ATOM     10  C9  UNK     1      41.555  19.770  10.919  1.00  0.00     0.071 A 
ATOM     11  C10 UNK     1      41.177  18.893  11.937  1.00  0.00     0.074 A 
ENDROOT
BRANCH   5  12
ATOM     12  C5  UNK     1      36.975  23.686  11.263  1.00  0.00    -0.002 A 
ATOM     13  C12 UNK     1      37.347  24.936  11.766  1.00  0.00     0.014 A 
ATOM     14  C14 UNK     1      36.676  26.087  11.353  1.00  0.00     0.001 A 
ATOM     15  C15 UNK     1      35.632  25.993  10.434  1.00  0.00     0.000 A 
ATOM     16  C13 UNK     1      35.257  24.748   9.929  1.00  0.00     0.001 A 
ATOM     17  C11 UNK     1      35.927  23.597  10.342  1.00  0.00     0.014 A 
ENDBRANCH   5  12
BRANCH  10  18
ATOM     18  O4  UNK     1      42.700  19.543  10.216  1.00  0.00    -0.361 OA
ATOM     19  H10 UNK     1      42.487  19.518   9.268  1.00  0.00     0.217 HD
ENDBRANCH  10  18
BRANCH   7  20
ATOM     20  O2  UNK     1      39.682  18.236  13.644  1.00  0.00    -0.360 OA
ATOM     21  H9  UNK     1      40.456  18.041  14.194  1.00  0.00     0.217 HD
ENDBRANCH   7  20
TORSDOF 3
ENDMDL
MODEL 15
REMARK VINA RESULT:      -5.9     14.912     16.828
REMARK  3 active torsions:
REMARK  status: ('A' for Active; 'I' for Inactive)
REMARK    1  A    between atoms: O2_2  and  C6_10 
REMARK    2  A    between atoms: O4_4  and  C9_13 
REMARK    3  A    between atoms: C3_7  and  C5_9 
ROOT
ATOM      1  O1  UNK     1      41.885  -0.426   8.419  1.00  0.00    -0.309 OA
ATOM      2  O3  UNK     1      39.176   2.304   7.075  1.00  0.00    -0.287 OA
ATOM      3  C1  UNK     1      39.579   0.122   7.887  1.00  0.00     0.081 A 
ATOM      4  C2  UNK     1      40.557  -0.762   8.338  1.00  0.00     0.095 A 
ATOM      5  C3  UNK     1      42.269   0.847   8.026  1.00  0.00     0.090 A 
ATOM      6  C4  UNK     1      39.981   1.476   7.478  1.00  0.00     0.190 A 
ATOM      7  C6  UNK     1      38.241  -0.275   7.826  1.00  0.00     0.085 A 
ATOM      8  C7  UNK     1      41.421   1.788   7.581  1.00  0.00     0.094 A 
ATOM      9  C8  UNK     1      40.202  -2.052   8.734  1.00  0.00     0.075 A 
ATOM     10  C9  UNK     1      38.867  -2.453   8.675  1.00  0.00     0.071 A 
ATOM     11  C10 UNK     1      37.889  -1.565   8.223  1.00  0.00     0.074 A 
ENDROOT
BRANCH   5  12
ATOM     12  C5  UNK     1      43.716   1.105   8.159  1.00  0.00    -0.002 A 
ATOM     13  C12 UNK     1      44.429   0.568   9.234  1.00  0.00     0.014 A 
ATOM     14  C14 UNK     1      45.797   0.812   9.360  1.00  0.00     0.001 A 
ATOM     15  C15 UNK     1      46.457   1.594   8.411  1.00  0.00     0.000 A 
ATOM     16  C13 UNK     1      45.748   2.132   7.337  1.00  0.00     0.001 A 
ATOM     17  C11 UNK     1      44.381   1.888   7.211  1.00  0.00     0.014 A 
ENDBRANCH   5  12
BRANCH  10  18
ATOM     18  O4  UNK     1      38.517  -3.711   9.061  1.00  0.00    -0.361 OA
ATOM     19  H10 UNK     1      37.745  -3.996   8.543  1.00  0.00     0.217 HD
ENDBRANCH  10  18
BRANCH   7  20
ATOM     20  O2  UNK     1      37.249   0.552   7.394  1.00  0.00    -0.360 OA
ATOM     21  H9  UNK     1      36.484   0.037   7.095  1.00  0.00     0.217 HD
ENDBRANCH   7  20
TORSDOF 3
ENDMDL
MODEL 16
REMARK VINA RESULT:      -5.9     12.998     13.899
REMARK  3 active torsions:
REMARK  status: ('A' for Active; 'I' for Inactive)
REMARK    1  A    between atoms: O2_2  and  C6_10 
REMARK    2  A    between atoms: O4_4  and  C9_13 
REMARK    3  A    between atoms: C3_7  and  C5_9 
ROOT
ATOM      1  O1  UNK     1      42.724  20.847  10.608  1.00  0.00    -0.309 OA
ATOM      2  O3  UNK     1      43.767  17.201  12.097  1.00  0.00    -0.287 OA
ATOM      3  C1  UNK     1      44.471  19.253  11.160  1.00  0.00     0.081 A 
ATOM      4  C2  UNK     1      44.046  20.484  10.663  1.00  0.00     0.095 A 
ATOM      5  C3  UNK     1      41.771  19.946  11.058  1.00  0.00     0.090 A 
ATOM      6  C4  UNK     1      43.465  18.298  11.647  1.00  0.00     0.190 A 
ATOM      7  C6  UNK     1      45.831  18.936  11.193  1.00  0.00     0.085 A 
ATOM      8  C7  UNK     1      42.056  18.735  11.563  1.00  0.00     0.094 A 
ATOM      9  C8  UNK     1      44.980  21.408  10.197  1.00  0.00     0.075 A 
ATOM     10  C9  UNK     1      46.340  21.096  10.228  1.00  0.00     0.071 A 
ATOM     11  C10 UNK     1      46.764  19.863  10.726  1.00  0.00     0.074 A 
ENDROOT
BRANCH   5  12
ATOM     12  C5  UNK     1      40.384  20.439  10.959  1.00  0.00    -0.002 A 
ATOM     13  C12 UNK     1      39.492  20.241  12.016  1.00  0.00     0.014 A 
ATOM     14  C14 UNK     1      38.180  20.707  11.923  1.00  0.00     0.001 A 
ATOM     15  C15 UNK     1      37.755  21.372  10.773  1.00  0.00     0.000 A 
ATOM     16  C13 UNK     1      38.643  21.571   9.716  1.00  0.00     0.001 A 
ATOM     17  C11 UNK     1      39.955  21.106   9.809  1.00  0.00     0.014 A 
ENDBRANCH   5  12
BRANCH  10  18
ATOM     18  O4  UNK     1      47.255  21.997   9.775  1.00  0.00    -0.361 OA
ATOM     19  H10 UNK     1      48.077  21.528   9.555  1.00  0.00     0.217 HD
ENDBRANCH  10  18
BRANCH   7  20
ATOM     20  O2  UNK     1      46.297  17.748  11.668  1.00  0.00    -0.360 OA
ATOM     21  H9  UNK     1      46.629  17.198  10.942  1.00  0.00     0.217 HD
ENDBRANCH   7  20
TORSDOF 3
ENDMDL
MODEL 17
REMARK VINA RESULT:      -5.8     20.780     22.065
REMARK  3 active torsions:
REMARK  status: ('A' for Active; 'I' for Inactive)
REMARK    1  A    between atoms: O2_2  and  C6_10 
REMARK    2  A    between atoms: O4_4  and  C9_13 
REMARK    3  A    between atoms: C3_7  and  C5_9 
ROOT
ATOM      1  O1  UNK     1      56.027  -1.055   2.487  1.00  0.00    -0.309 OA
ATOM      2  O3  UNK     1      52.639  -2.257   0.569  1.00  0.00    -0.287 OA
ATOM      3  C1  UNK     1      54.895  -1.574   0.401  1.00  0.00     0.081 A 
ATOM      4  C2  UNK     1      56.019  -1.170   1.119  1.00  0.00     0.095 A 
ATOM      5  C3  UNK     1      54.863  -1.346   3.181  1.00  0.00     0.090 A 
ATOM      6  C4  UNK     1      53.661  -1.893   1.134  1.00  0.00     0.190 A 
ATOM      7  C6  UNK     1      54.945  -1.674  -0.991  1.00  0.00     0.085 A 
ATOM      8  C7  UNK     1      53.720  -1.751   2.604  1.00  0.00     0.094 A 
ATOM      9  C8  UNK     1      57.203  -0.863   0.448  1.00  0.00     0.075 A 
ATOM     10  C9  UNK     1      57.257  -0.962  -0.943  1.00  0.00     0.071 A 
ATOM     11  C10 UNK     1      56.130  -1.367  -1.660  1.00  0.00     0.074 A 
ENDROOT
BRANCH   5  12
ATOM     12  C5  UNK     1      54.983  -1.196   4.645  1.00  0.00    -0.002 A 
ATOM     13  C12 UNK     1      55.697  -0.123   5.183  1.00  0.00     0.014 A 
ATOM     14  C14 UNK     1      55.812   0.020   6.567  1.00  0.00     0.001 A 
ATOM     15  C15 UNK     1      55.211  -0.910   7.416  1.00  0.00     0.000 A 
ATOM     16  C13 UNK     1      54.497  -1.983   6.881  1.00  0.00     0.001 A 
ATOM     17  C11 UNK     1      54.383  -2.125   5.498  1.00  0.00     0.014 A 
ENDBRANCH   5  12
BRANCH  10  18
ATOM     18  O4  UNK     1      58.411  -0.664  -1.601  1.00  0.00    -0.361 OA
ATOM     19  H10 UNK     1      59.044  -1.391  -1.472  1.00  0.00     0.217 HD
ENDBRANCH  10  18
BRANCH   7  20
ATOM     20  O2  UNK     1      53.875  -2.065  -1.737  1.00  0.00    -0.360 OA
ATOM     21  H9  UNK     1      53.909  -3.019  -1.908  1.00  0.00     0.217 HD
ENDBRANCH   7  20
TORSDOF 3
ENDMDL
