MODEL 1
REMARK VINA RESULT:      -7.8      0.000      0.000
REMARK  3 active torsions:
REMARK  status: ('A' for Active; 'I' for Inactive)
REMARK    1  A    between atoms: O2_2  and  C6_10 
REMARK    2  A    between atoms: O4_4  and  C9_13 
REMARK    3  A    between atoms: C3_7  and  C5_9 
ROOT
ATOM      1  O1  UNK     1      39.751  15.629  -0.260  1.00  0.00    -0.309 OA
ATOM      2  O3  UNK     1      40.942  17.237  -3.810  1.00  0.00    -0.287 OA
ATOM      3  C1  UNK     1      39.868  17.560  -1.730  1.00  0.00     0.081 A 
ATOM      4  C2  UNK     1      39.490  16.948  -0.536  1.00  0.00     0.095 A 
ATOM      5  C3  UNK     1      40.414  14.873  -1.215  1.00  0.00     0.090 A 
ATOM      6  C4  UNK     1      40.579  16.764  -2.741  1.00  0.00     0.190 A 
ATOM      7  C6  UNK     1      39.576  18.907  -1.957  1.00  0.00     0.085 A 
ATOM      8  C7  UNK     1      40.834  15.350  -2.398  1.00  0.00     0.094 A 
ATOM      9  C8  UNK     1      38.817  17.681   0.441  1.00  0.00     0.075 A 
ATOM     10  C9  UNK     1      38.522  19.027   0.218  1.00  0.00     0.071 A 
ATOM     11  C10 UNK     1      38.902  19.638  -0.978  1.00  0.00     0.074 A 
ENDROOT
BRANCH   5  12
ATOM     12  C5  UNK     1      40.649  13.472  -0.815  1.00  0.00    -0.002 A 
ATOM     13  C12 UNK     1      40.116  12.986   0.382  1.00  0.00     0.014 A 
ATOM     14  C14 UNK     1      40.339  11.662   0.762  1.00  0.00     0.001 A 
ATOM     15  C15 UNK     1      41.094  10.820  -0.055  1.00  0.00     0.000 A 
ATOM     16  C13 UNK     1      41.628  11.302  -1.250  1.00  0.00     0.001 A 
ATOM     17  C11 UNK     1      41.405  12.626  -1.630  1.00  0.00     0.014 A 
ENDBRANCH   5  12
BRANCH  10  18
ATOM     18  O4  UNK     1      37.866  19.746   1.171  1.00  0.00    -0.361 OA
ATOM     19  H10 UNK     1      38.482  19.944   1.896  1.00  0.00     0.217 HD
ENDBRANCH  10  18
BRANCH   7  20
ATOM     20  O2  UNK     1      39.924  19.550  -3.105  1.00  0.00    -0.360 OA
ATOM     21  H9  UNK     1      39.191  20.099  -3.423  1.00  0.00     0.217 HD
ENDBRANCH   7  20
TORSDOF 3
ENDMDL
MODEL 2
REMARK VINA RESULT:      -7.2      1.264      2.971
REMARK  3 active torsions:
REMARK  status: ('A' for Active; 'I' for Inactive)
REMARK    1  A    between atoms: O2_2  and  C6_10 
REMARK    2  A    between atoms: O4_4  and  C9_13 
REMARK    3  A    between atoms: C3_7  and  C5_9 
ROOT
ATOM      1  O1  UNK     1      40.730  15.127  -2.127  1.00  0.00    -0.309 OA
ATOM      2  O3  UNK     1      38.944  17.831   0.343  1.00  0.00    -0.287 OA
ATOM      3  C1  UNK     1      39.923  17.389  -1.762  1.00  0.00     0.081 A 
ATOM      4  C2  UNK     1      40.526  16.415  -2.556  1.00  0.00     0.095 A 
ATOM      5  C3  UNK     1      40.324  14.785  -0.847  1.00  0.00     0.090 A 
ATOM      6  C4  UNK     1      39.483  17.028  -0.407  1.00  0.00     0.190 A 
ATOM      7  C6  UNK     1      39.741  18.685  -2.251  1.00  0.00     0.085 A 
ATOM      8  C7  UNK     1      39.727  15.631   0.008  1.00  0.00     0.094 A 
ATOM      9  C8  UNK     1      40.952  16.731  -3.846  1.00  0.00     0.075 A 
ATOM     10  C9  UNK     1      40.772  18.025  -4.338  1.00  0.00     0.071 A 
ATOM     11  C10 UNK     1      40.167  18.999  -3.542  1.00  0.00     0.074 A 
ENDROOT
BRANCH   5  12
ATOM     12  C5  UNK     1      40.584  13.377  -0.490  1.00  0.00    -0.002 A 
ATOM     13  C12 UNK     1      40.180  12.881   0.752  1.00  0.00     0.014 A 
ATOM     14  C14 UNK     1      40.426  11.550   1.090  1.00  0.00     0.001 A 
ATOM     15  C15 UNK     1      41.076  10.710   0.186  1.00  0.00     0.000 A 
ATOM     16  C13 UNK     1      41.480  11.201  -1.055  1.00  0.00     0.001 A 
ATOM     17  C11 UNK     1      41.234  12.531  -1.393  1.00  0.00     0.014 A 
ENDBRANCH   5  12
BRANCH  10  18
ATOM     18  O4  UNK     1      41.185  18.336  -5.598  1.00  0.00    -0.361 OA
ATOM     19  H10 UNK     1      42.154  18.267  -5.638  1.00  0.00     0.217 HD
ENDBRANCH  10  18
BRANCH   7  20
ATOM     20  O2  UNK     1      39.157  19.671  -1.515  1.00  0.00    -0.360 OA
ATOM     21  H9  UNK     1      39.487  20.540  -1.790  1.00  0.00     0.217 HD
ENDBRANCH   7  20
TORSDOF 3
ENDMDL
MODEL 3
REMARK VINA RESULT:      -6.7      1.952      6.190
REMARK  3 active torsions:
REMARK  status: ('A' for Active; 'I' for Inactive)
REMARK    1  A    between atoms: O2_2  and  C6_10 
REMARK    2  A    between atoms: O4_4  and  C9_13 
REMARK    3  A    between atoms: C3_7  and  C5_9 
ROOT
ATOM      1  O1  UNK     1      39.450  15.245  -0.128  1.00  0.00    -0.309 OA
ATOM      2  O3  UNK     1      42.480  14.712  -2.800  1.00  0.00    -0.287 OA
ATOM      3  C1  UNK     1      41.003  13.739  -1.233  1.00  0.00     0.081 A 
ATOM      4  C2  UNK     1      39.967  13.991  -0.336  1.00  0.00     0.095 A 
ATOM      5  C3  UNK     1      39.989  16.307  -0.838  1.00  0.00     0.090 A 
ATOM      6  C4  UNK     1      41.571  14.861  -1.994  1.00  0.00     0.190 A 
ATOM      7  C6  UNK     1      41.490  12.441  -1.404  1.00  0.00     0.085 A 
ATOM      8  C7  UNK     1      40.983  16.191  -1.733  1.00  0.00     0.094 A 
ATOM      9  C8  UNK     1      39.408  12.944   0.398  1.00  0.00     0.075 A 
ATOM     10  C9  UNK     1      39.892  11.645   0.230  1.00  0.00     0.071 A 
ATOM     11  C10 UNK     1      40.930  11.395  -0.669  1.00  0.00     0.074 A 
ENDROOT
BRANCH   5  12
ATOM     12  C5  UNK     1      39.357  17.608  -0.545  1.00  0.00    -0.002 A 
ATOM     13  C12 UNK     1      39.527  18.684  -1.420  1.00  0.00     0.014 A 
ATOM     14  C14 UNK     1      38.930  19.915  -1.143  1.00  0.00     0.001 A 
ATOM     15  C15 UNK     1      38.160  20.073   0.010  1.00  0.00     0.000 A 
ATOM     16  C13 UNK     1      37.988  19.001   0.885  1.00  0.00     0.001 A 
ATOM     17  C11 UNK     1      38.584  17.771   0.609  1.00  0.00     0.014 A 
ENDBRANCH   5  12
BRANCH  10  18
ATOM     18  O4  UNK     1      39.348  10.621   0.944  1.00  0.00    -0.361 OA
ATOM     19  H10 UNK     1      40.065  10.107   1.353  1.00  0.00     0.217 HD
ENDBRANCH  10  18
BRANCH   7  20
ATOM     20  O2  UNK     1      42.499  12.143  -2.267  1.00  0.00    -0.360 OA
ATOM     21  H9  UNK     1      42.228  11.441  -2.878  1.00  0.00     0.217 HD
ENDBRANCH   7  20
TORSDOF 3
ENDMDL
MODEL 4
REMARK VINA RESULT:      -6.3      2.237      6.259
REMARK  3 active torsions:
REMARK  status: ('A' for Active; 'I' for Inactive)
REMARK    1  A    between atoms: O2_2  and  C6_10 
REMARK    2  A    between atoms: O4_4  and  C9_13 
REMARK    3  A    between atoms: C3_7  and  C5_9 
ROOT
ATOM      1  O1  UNK     1      39.755  14.584  -0.147  1.00  0.00    -0.309 OA
ATOM      2  O3  UNK     1      42.504  12.996  -2.700  1.00  0.00    -0.287 OA
ATOM      3  C1  UNK     1      41.046  12.658  -0.871  1.00  0.00     0.081 A 
ATOM      4  C2  UNK     1      40.112  13.264  -0.032  1.00  0.00     0.095 A 
ATOM      5  C3  UNK     1      40.355  15.348  -1.135  1.00  0.00     0.090 A 
ATOM      6  C4  UNK     1      41.678  13.462  -1.927  1.00  0.00     0.190 A 
ATOM      7  C6  UNK     1      41.372  11.310  -0.709  1.00  0.00     0.085 A 
ATOM      8  C7  UNK     1      41.262  14.878  -2.007  1.00  0.00     0.094 A 
ATOM      9  C8  UNK     1      39.496  12.523   0.976  1.00  0.00     0.075 A 
ATOM     10  C9  UNK     1      39.818  11.175   1.142  1.00  0.00     0.071 A 
ATOM     11  C10 UNK     1      40.754  10.571   0.301  1.00  0.00     0.074 A 
ENDROOT
BRANCH   5  12
ATOM     12  C5  UNK     1      39.895  16.750  -1.174  1.00  0.00    -0.002 A 
ATOM     13  C12 UNK     1      39.124  17.264  -0.128  1.00  0.00     0.014 A 
ATOM     14  C14 UNK     1      38.688  18.589  -0.165  1.00  0.00     0.001 A 
ATOM     15  C15 UNK     1      39.021  19.404  -1.247  1.00  0.00     0.000 A 
ATOM     16  C13 UNK     1      39.790  18.893  -2.293  1.00  0.00     0.001 A 
ATOM     17  C11 UNK     1      40.226  17.569  -2.256  1.00  0.00     0.014 A 
ENDBRANCH   5  12
BRANCH  10  18
ATOM     18  O4  UNK     1      39.218  10.449   2.125  1.00  0.00    -0.361 OA
ATOM     19  H10 UNK     1      38.438  10.001   1.754  1.00  0.00     0.217 HD
ENDBRANCH  10  18
BRANCH   7  20
ATOM     20  O2  UNK     1      42.276  10.672  -1.502  1.00  0.00    -0.360 OA
ATOM     21  H9  UNK     1      41.880   9.884  -1.904  1.00  0.00     0.217 HD
ENDBRANCH   7  20
TORSDOF 3
ENDMDL
MODEL 5
REMARK VINA RESULT:      -5.6      9.946     11.991
REMARK  3 active torsions:
REMARK  status: ('A' for Active; 'I' for Inactive)
REMARK    1  A    between atoms: O2_2  and  C6_10 
REMARK    2  A    between atoms: O4_4  and  C9_13 
REMARK    3  A    between atoms: C3_7  and  C5_9 
ROOT
ATOM      1  O1  UNK     1      46.258  11.548  -7.580  1.00  0.00    -0.309 OA
ATOM      2  O3  UNK     1      48.245   8.160  -8.664  1.00  0.00    -0.287 OA
ATOM      3  C1  UNK     1      46.240   9.410  -8.733  1.00  0.00     0.081 A 
ATOM      4  C2  UNK     1      45.621  10.591  -8.330  1.00  0.00     0.095 A 
ATOM      5  C3  UNK     1      47.573  11.324  -7.203  1.00  0.00     0.090 A 
ATOM      6  C4  UNK     1      47.638   9.173  -8.343  1.00  0.00     0.190 A 
ATOM      7  C6  UNK     1      45.543   8.471  -9.496  1.00  0.00     0.085 A 
ATOM      8  C7  UNK     1      48.278  10.230  -7.534  1.00  0.00     0.094 A 
ATOM      9  C8  UNK     1      44.296  10.842  -8.689  1.00  0.00     0.075 A 
ATOM     10  C9  UNK     1      43.595   9.906  -9.451  1.00  0.00     0.071 A 
ATOM     11  C10 UNK     1      44.218   8.724  -9.854  1.00  0.00     0.074 A 
ENDROOT
BRANCH   5  12
ATOM     12  C5  UNK     1      48.163  12.417  -6.406  1.00  0.00    -0.002 A 
ATOM     13  C12 UNK     1      47.765  12.613  -5.081  1.00  0.00     0.014 A 
ATOM     14  C14 UNK     1      48.322  13.647  -4.327  1.00  0.00     0.001 A 
ATOM     15  C15 UNK     1      49.280  14.486  -4.895  1.00  0.00     0.000 A 
ATOM     16  C13 UNK     1      49.680  14.293  -6.217  1.00  0.00     0.001 A 
ATOM     17  C11 UNK     1      49.123  13.260  -6.971  1.00  0.00     0.014 A 
ENDBRANCH   5  12
BRANCH  10  18
ATOM     18  O4  UNK     1      42.302  10.148  -9.804  1.00  0.00    -0.361 OA
ATOM     19  H10 UNK     1      42.259  10.996 -10.279  1.00  0.00     0.217 HD
ENDBRANCH  10  18
BRANCH   7  20
ATOM     20  O2  UNK     1      46.104   7.303  -9.915  1.00  0.00    -0.360 OA
ATOM     21  H9  UNK     1      46.097   7.250 -10.883  1.00  0.00     0.217 HD
ENDBRANCH   7  20
TORSDOF 3
ENDMDL
MODEL 6
REMARK VINA RESULT:      -5.4     11.227     13.552
REMARK  3 active torsions:
REMARK  status: ('A' for Active; 'I' for Inactive)
REMARK    1  A    between atoms: O2_2  and  C6_10 
REMARK    2  A    between atoms: O4_4  and  C9_13 
REMARK    3  A    between atoms: C3_7  and  C5_9 
ROOT
ATOM      1  O1  UNK     1      40.348  14.374 -13.582  1.00  0.00    -0.309 OA
ATOM      2  O3  UNK     1      39.966  10.640 -11.998  1.00  0.00    -0.287 OA
ATOM      3  C1  UNK     1      39.224  12.221 -13.590  1.00  0.00     0.081 A 
ATOM      4  C2  UNK     1      39.408  13.510 -14.086  1.00  0.00     0.095 A 
ATOM      5  C3  UNK     1      41.142  13.946 -12.530  1.00  0.00     0.090 A 
ATOM      6  C4  UNK     1      40.071  11.759 -12.480  1.00  0.00     0.190 A 
ATOM      7  C6  UNK     1      38.252  11.383 -14.142  1.00  0.00     0.085 A 
ATOM      8  C7  UNK     1      41.065  12.727 -11.971  1.00  0.00     0.094 A 
ATOM      9  C8  UNK     1      38.619  13.971 -15.140  1.00  0.00     0.075 A 
ATOM     10  C9  UNK     1      37.646  13.139 -15.694  1.00  0.00     0.071 A 
ATOM     11  C10 UNK     1      37.464  11.847 -15.196  1.00  0.00     0.074 A 
ENDROOT
BRANCH   5  12
ATOM     12  C5  UNK     1      42.122  14.950 -12.070  1.00  0.00    -0.002 A 
ATOM     13  C12 UNK     1      42.865  15.682 -12.999  1.00  0.00     0.014 A 
ATOM     14  C14 UNK     1      43.791  16.631 -12.565  1.00  0.00     0.001 A 
ATOM     15  C15 UNK     1      43.978  16.851 -11.201  1.00  0.00     0.000 A 
ATOM     16  C13 UNK     1      43.237  16.121 -10.270  1.00  0.00     0.001 A 
ATOM     17  C11 UNK     1      42.311  15.173 -10.703  1.00  0.00     0.014 A 
ENDBRANCH   5  12
BRANCH  10  18
ATOM     18  O4  UNK     1      36.875  13.586 -16.724  1.00  0.00    -0.361 OA
ATOM     19  H10 UNK     1      37.412  13.603 -17.534  1.00  0.00     0.217 HD
ENDBRANCH  10  18
BRANCH   7  20
ATOM     20  O2  UNK     1      38.034  10.116 -13.694  1.00  0.00    -0.360 OA
ATOM     21  H9  UNK     1      37.149   9.813 -13.948  1.00  0.00     0.217 HD
ENDBRANCH   7  20
TORSDOF 3
ENDMDL
MODEL 7
REMARK VINA RESULT:      -5.4      9.753     11.396
REMARK  3 active torsions:
REMARK  status: ('A' for Active; 'I' for Inactive)
REMARK    1  A    between atoms: O2_2  and  C6_10 
REMARK    2  A    between atoms: O4_4  and  C9_13 
REMARK    3  A    between atoms: C3_7  and  C5_9 
ROOT
ATOM      1  O1  UNK     1      47.193  12.032  -7.032  1.00  0.00    -0.309 OA
ATOM      2  O3  UNK     1      50.563  12.874  -9.161  1.00  0.00    -0.287 OA
ATOM      3  C1  UNK     1      49.321  13.195  -7.176  1.00  0.00     0.081 A 
ATOM      4  C2  UNK     1      48.147  12.865  -6.502  1.00  0.00     0.095 A 
ATOM      5  C3  UNK     1      47.406  11.503  -8.295  1.00  0.00     0.090 A 
ATOM      6  C4  UNK     1      49.555  12.629  -8.513  1.00  0.00     0.190 A 
ATOM      7  C6  UNK     1      50.257  14.048  -6.588  1.00  0.00     0.085 A 
ATOM      8  C7  UNK     1      48.498  11.741  -9.040  1.00  0.00     0.094 A 
ATOM      9  C8  UNK     1      47.902  13.386  -5.232  1.00  0.00     0.075 A 
ATOM     10  C9  UNK     1      48.834  14.239  -4.641  1.00  0.00     0.071 A 
ATOM     11  C10 UNK     1      50.009  14.569  -5.318  1.00  0.00     0.074 A 
ENDROOT
BRANCH   5  12
ATOM     12  C5  UNK     1      46.324  10.617  -8.766  1.00  0.00    -0.002 A 
ATOM     13  C12 UNK     1      46.630   9.394  -9.368  1.00  0.00     0.014 A 
ATOM     14  C14 UNK     1      45.607   8.555  -9.813  1.00  0.00     0.001 A 
ATOM     15  C15 UNK     1      44.275   8.937  -9.658  1.00  0.00     0.000 A 
ATOM     16  C13 UNK     1      43.965  10.158  -9.058  1.00  0.00     0.001 A 
ATOM     17  C11 UNK     1      44.987  10.996  -8.612  1.00  0.00     0.014 A 
ENDBRANCH   5  12
BRANCH  10  18
ATOM     18  O4  UNK     1      48.598  14.749  -3.400  1.00  0.00    -0.361 OA
ATOM     19  H10 UNK     1      47.895  15.417  -3.463  1.00  0.00     0.217 HD
ENDBRANCH  10  18
BRANCH   7  20
ATOM     20  O2  UNK     1      51.419  14.400  -7.206  1.00  0.00    -0.360 OA
ATOM     21  H9  UNK     1      51.958  13.616  -7.387  1.00  0.00     0.217 HD
ENDBRANCH   7  20
TORSDOF 3
ENDMDL
MODEL 8
REMARK VINA RESULT:      -5.2     10.339     12.374
REMARK  3 active torsions:
REMARK  status: ('A' for Active; 'I' for Inactive)
REMARK    1  A    between atoms: O2_2  and  C6_10 
REMARK    2  A    between atoms: O4_4  and  C9_13 
REMARK    3  A    between atoms: C3_7  and  C5_9 
ROOT
ATOM      1  O1  UNK     1      48.029  11.429  -5.938  1.00  0.00    -0.309 OA
ATOM      2  O3  UNK     1      51.041   8.877  -6.944  1.00  0.00    -0.287 OA
ATOM      3  C1  UNK     1      50.044  10.238  -5.290  1.00  0.00     0.081 A 
ATOM      4  C2  UNK     1      48.987  11.103  -5.011  1.00  0.00     0.095 A 
ATOM      5  C3  UNK     1      48.122  10.879  -7.207  1.00  0.00     0.090 A 
ATOM      6  C4  UNK     1      50.142   9.645  -6.632  1.00  0.00     0.190 A 
ATOM      7  C6  UNK     1      50.992   9.942  -4.307  1.00  0.00     0.085 A 
ATOM      8  C7  UNK     1      49.088  10.030  -7.593  1.00  0.00     0.094 A 
ATOM      9  C8  UNK     1      48.871  11.677  -3.746  1.00  0.00     0.075 A 
ATOM     10  C9  UNK     1      49.815  11.384  -2.761  1.00  0.00     0.071 A 
ATOM     11  C10 UNK     1      50.873  10.518  -3.042  1.00  0.00     0.074 A 
ENDROOT
BRANCH   5  12
ATOM     12  C5  UNK     1      47.038  11.289  -8.121  1.00  0.00    -0.002 A 
ATOM     13  C12 UNK     1      47.313  11.537  -9.468  1.00  0.00     0.014 A 
ATOM     14  C14 UNK     1      46.289  11.926 -10.333  1.00  0.00     0.001 A 
ATOM     15  C15 UNK     1      44.987  12.068  -9.853  1.00  0.00     0.000 A 
ATOM     16  C13 UNK     1      44.709  11.821  -8.508  1.00  0.00     0.001 A 
ATOM     17  C11 UNK     1      45.733  11.432  -7.644  1.00  0.00     0.014 A 
ENDBRANCH   5  12
BRANCH  10  18
ATOM     18  O4  UNK     1      49.703  11.942  -1.524  1.00  0.00    -0.361 OA
ATOM     19  H10 UNK     1      50.481  12.502  -1.360  1.00  0.00     0.217 HD
ENDBRANCH  10  18
BRANCH   7  20
ATOM     20  O2  UNK     1      52.042   9.104  -4.530  1.00  0.00    -0.360 OA
ATOM     21  H9  UNK     1      52.845   9.609  -4.726  1.00  0.00     0.217 HD
ENDBRANCH   7  20
TORSDOF 3
ENDMDL
MODEL 9
REMARK VINA RESULT:      -5.2     10.519     12.973
REMARK  3 active torsions:
REMARK  status: ('A' for Active; 'I' for Inactive)
REMARK    1  A    between atoms: O2_2  and  C6_10 
REMARK    2  A    between atoms: O4_4  and  C9_13 
REMARK    3  A    between atoms: C3_7  and  C5_9 
ROOT
ATOM      1  O1  UNK     1      50.356  11.252  -2.242  1.00  0.00    -0.309 OA
ATOM      2  O3  UNK     1      52.652   8.809  -4.558  1.00  0.00    -0.287 OA
ATOM      3  C1  UNK     1      50.659  10.060  -4.337  1.00  0.00     0.081 A 
ATOM      4  C2  UNK     1      49.924  10.892  -3.495  1.00  0.00     0.095 A 
ATOM      5  C3  UNK     1      51.572  10.758  -1.796  1.00  0.00     0.090 A 
ATOM      6  C4  UNK     1      51.953   9.542  -3.871  1.00  0.00     0.190 A 
ATOM      7  C6  UNK     1      50.171   9.727  -5.603  1.00  0.00     0.085 A 
ATOM      8  C7  UNK     1      52.372   9.955  -2.515  1.00  0.00     0.094 A 
ATOM      9  C8  UNK     1      48.694  11.399  -3.914  1.00  0.00     0.075 A 
ATOM     10  C9  UNK     1      48.202  11.069  -5.177  1.00  0.00     0.071 A 
ATOM     11  C10 UNK     1      48.940  10.235  -6.019  1.00  0.00     0.074 A 
ENDROOT
BRANCH   5  12
ATOM     12  C5  UNK     1      51.943  11.211  -0.441  1.00  0.00    -0.002 A 
ATOM     13  C12 UNK     1      53.276  11.502  -0.139  1.00  0.00     0.014 A 
ATOM     14  C14 UNK     1      53.627  11.930   1.142  1.00  0.00     0.001 A 
ATOM     15  C15 UNK     1      52.647  12.069   2.124  1.00  0.00     0.000 A 
ATOM     16  C13 UNK     1      51.315  11.780   1.826  1.00  0.00     0.001 A 
ATOM     17  C11 UNK     1      50.964  11.353   0.546  1.00  0.00     0.014 A 
ENDBRANCH   5  12
BRANCH  10  18
ATOM     18  O4  UNK     1      47.002  11.562  -5.590  1.00  0.00    -0.361 OA
ATOM     19  H10 UNK     1      46.382  11.551  -4.841  1.00  0.00     0.217 HD
ENDBRANCH  10  18
BRANCH   7  20
ATOM     20  O2  UNK     1      50.850   8.918  -6.462  1.00  0.00    -0.360 OA
ATOM     21  H9  UNK     1      50.252   8.271  -6.865  1.00  0.00     0.217 HD
ENDBRANCH   7  20
TORSDOF 3
ENDMDL
MODEL 10
REMARK VINA RESULT:      -5.2     10.271     12.048
REMARK  3 active torsions:
REMARK  status: ('A' for Active; 'I' for Inactive)
REMARK    1  A    between atoms: O2_2  and  C6_10 
REMARK    2  A    between atoms: O4_4  and  C9_13 
REMARK    3  A    between atoms: C3_7  and  C5_9 
ROOT
ATOM      1  O1  UNK     1      48.558   9.992  -6.596  1.00  0.00    -0.309 OA
ATOM      2  O3  UNK     1      47.745  13.924  -5.901  1.00  0.00    -0.287 OA
ATOM      3  C1  UNK     1      48.703  11.911  -5.115  1.00  0.00     0.081 A 
ATOM      4  C2  UNK     1      48.950  10.574  -5.417  1.00  0.00     0.095 A 
ATOM      5  C3  UNK     1      47.881  10.770  -7.523  1.00  0.00     0.090 A 
ATOM      6  C4  UNK     1      47.993  12.742  -6.098  1.00  0.00     0.190 A 
ATOM      7  C6  UNK     1      49.125  12.451  -3.897  1.00  0.00     0.085 A 
ATOM      8  C7  UNK     1      47.590  12.069  -7.351  1.00  0.00     0.094 A 
ATOM      9  C8  UNK     1      49.623   9.764  -4.501  1.00  0.00     0.075 A 
ATOM     10  C9  UNK     1      50.047  10.299  -3.284  1.00  0.00     0.071 A 
ATOM     11  C10 UNK     1      49.799  11.639  -2.983  1.00  0.00     0.074 A 
ENDROOT
BRANCH   5  12
ATOM     12  C5  UNK     1      47.512  10.049  -8.757  1.00  0.00    -0.002 A 
ATOM     13  C12 UNK     1      47.577  10.696  -9.994  1.00  0.00     0.014 A 
ATOM     14  C14 UNK     1      47.228  10.015 -11.161  1.00  0.00     0.001 A 
ATOM     15  C15 UNK     1      46.814   8.685 -11.095  1.00  0.00     0.000 A 
ATOM     16  C13 UNK     1      46.747   8.036  -9.862  1.00  0.00     0.001 A 
ATOM     17  C11 UNK     1      47.096   8.716  -8.695  1.00  0.00     0.014 A 
ENDBRANCH   5  12
BRANCH  10  18
ATOM     18  O4  UNK     1      50.705   9.512  -2.389  1.00  0.00    -0.361 OA
ATOM     19  H10 UNK     1      51.662   9.611  -2.526  1.00  0.00     0.217 HD
ENDBRANCH  10  18
BRANCH   7  20
ATOM     20  O2  UNK     1      48.909  13.751  -3.556  1.00  0.00    -0.360 OA
ATOM     21  H9  UNK     1      49.457  14.340  -4.096  1.00  0.00     0.217 HD
ENDBRANCH   7  20
TORSDOF 3
ENDMDL
MODEL 11
REMARK VINA RESULT:      -5.2     10.592     13.031
REMARK  3 active torsions:
REMARK  status: ('A' for Active; 'I' for Inactive)
REMARK    1  A    between atoms: O2_2  and  C6_10 
REMARK    2  A    between atoms: O4_4  and  C9_13 
REMARK    3  A    between atoms: C3_7  and  C5_9 
ROOT
ATOM      1  O1  UNK     1      51.080  10.116  -3.765  1.00  0.00    -0.309 OA
ATOM      2  O3  UNK     1      47.505  11.803  -4.750  1.00  0.00    -0.287 OA
ATOM      3  C1  UNK     1      49.278  10.371  -5.374  1.00  0.00     0.081 A 
ATOM      4  C2  UNK     1      50.498   9.828  -4.974  1.00  0.00     0.095 A 
ATOM      5  C3  UNK     1      50.428  10.990  -2.909  1.00  0.00     0.090 A 
ATOM      6  C4  UNK     1      48.579  11.292  -4.466  1.00  0.00     0.190 A 
ATOM      7  C6  UNK     1      48.732  10.042  -6.617  1.00  0.00     0.085 A 
ATOM      8  C7  UNK     1      49.248  11.572  -3.178  1.00  0.00     0.094 A 
ATOM      9  C8  UNK     1      51.180   8.950  -5.816  1.00  0.00     0.075 A 
ATOM     10  C9  UNK     1      50.638   8.619  -7.059  1.00  0.00     0.071 A 
ATOM     11  C10 UNK     1      49.417   9.164  -7.457  1.00  0.00     0.074 A 
ENDROOT
BRANCH   5  12
ATOM     12  C5  UNK     1      51.137  11.225  -1.636  1.00  0.00    -0.002 A 
ATOM     13  C12 UNK     1      52.532  11.159  -1.587  1.00  0.00     0.014 A 
ATOM     14  C14 UNK     1      53.202  11.380  -0.383  1.00  0.00     0.001 A 
ATOM     15  C15 UNK     1      52.480  11.668   0.775  1.00  0.00     0.000 A 
ATOM     16  C13 UNK     1      51.087  11.734   0.729  1.00  0.00     0.001 A 
ATOM     17  C11 UNK     1      50.417  11.514  -0.473  1.00  0.00     0.014 A 
ENDBRANCH   5  12
BRANCH  10  18
ATOM     18  O4  UNK     1      51.302   7.761  -7.883  1.00  0.00    -0.361 OA
ATOM     19  H10 UNK     1      51.586   8.244  -8.677  1.00  0.00     0.217 HD
ENDBRANCH  10  18
BRANCH   7  20
ATOM     20  O2  UNK     1      47.544  10.546  -7.053  1.00  0.00    -0.360 OA
ATOM     21  H9  UNK     1      47.684  11.151  -7.797  1.00  0.00     0.217 HD
ENDBRANCH   7  20
TORSDOF 3
ENDMDL
MODEL 12
REMARK VINA RESULT:      -5.2     10.401     13.087
REMARK  3 active torsions:
REMARK  status: ('A' for Active; 'I' for Inactive)
REMARK    1  A    between atoms: O2_2  and  C6_10 
REMARK    2  A    between atoms: O4_4  and  C9_13 
REMARK    3  A    between atoms: C3_7  and  C5_9 
ROOT
ATOM      1  O1  UNK     1      43.323  12.032 -11.730  1.00  0.00    -0.309 OA
ATOM      2  O3  UNK     1      44.851  10.179  -8.439  1.00  0.00    -0.287 OA
ATOM      3  C1  UNK     1      43.747   9.971 -10.518  1.00  0.00     0.081 A 
ATOM      4  C2  UNK     1      43.246  10.667 -11.616  1.00  0.00     0.095 A 
ATOM      5  C3  UNK     1      43.919  12.748 -10.703  1.00  0.00     0.090 A 
ATOM      6  C4  UNK     1      44.388  10.725  -9.431  1.00  0.00     0.190 A 
ATOM      7  C6  UNK     1      43.641   8.579 -10.455  1.00  0.00     0.085 A 
ATOM      8  C7  UNK     1      44.444  12.192  -9.599  1.00  0.00     0.094 A 
ATOM      9  C8  UNK     1      42.635   9.975 -12.661  1.00  0.00     0.075 A 
ATOM     10  C9  UNK     1      42.526   8.585 -12.603  1.00  0.00     0.071 A 
ATOM     11  C10 UNK     1      43.029   7.889 -11.502  1.00  0.00     0.074 A 
ENDROOT
BRANCH   5  12
ATOM     12  C5  UNK     1      43.955  14.206 -10.930  1.00  0.00    -0.002 A 
ATOM     13  C12 UNK     1      43.251  15.066 -10.083  1.00  0.00     0.014 A 
ATOM     14  C14 UNK     1      43.284  16.444 -10.297  1.00  0.00     0.001 A 
ATOM     15  C15 UNK     1      44.022  16.968 -11.358  1.00  0.00     0.000 A 
ATOM     16  C13 UNK     1      44.727  16.113 -12.206  1.00  0.00     0.001 A 
ATOM     17  C11 UNK     1      44.694  14.735 -11.992  1.00  0.00     0.014 A 
ENDBRANCH   5  12
BRANCH  10  18
ATOM     18  O4  UNK     1      41.931   7.906 -13.622  1.00  0.00    -0.361 OA
ATOM     19  H10 UNK     1      42.337   8.180 -14.462  1.00  0.00     0.217 HD
ENDBRANCH  10  18
BRANCH   7  20
ATOM     20  O2  UNK     1      44.114   7.854  -9.404  1.00  0.00    -0.360 OA
ATOM     21  H9  UNK     1      44.210   6.921  -9.651  1.00  0.00     0.217 HD
ENDBRANCH   7  20
TORSDOF 3
ENDMDL
MODEL 13
REMARK VINA RESULT:      -5.1     10.719     12.172
REMARK  3 active torsions:
REMARK  status: ('A' for Active; 'I' for Inactive)
REMARK    1  A    between atoms: O2_2  and  C6_10 
REMARK    2  A    between atoms: O4_4  and  C9_13 
REMARK    3  A    between atoms: C3_7  and  C5_9 
ROOT
ATOM      1  O1  UNK     1      48.458  10.575  -5.946  1.00  0.00    -0.309 OA
ATOM      2  O3  UNK     1      50.575  14.003  -6.552  1.00  0.00    -0.287 OA
ATOM      3  C1  UNK     1      50.284  12.031  -5.281  1.00  0.00     0.081 A 
ATOM      4  C2  UNK     1      49.519  10.877  -5.130  1.00  0.00     0.095 A 
ATOM      5  C3  UNK     1      48.129  11.463  -6.958  1.00  0.00     0.090 A 
ATOM      6  C4  UNK     1      49.945  12.971  -6.360  1.00  0.00     0.190 A 
ATOM      7  C6  UNK     1      51.355  12.288  -4.421  1.00  0.00     0.085 A 
ATOM      8  C7  UNK     1      48.793  12.603  -7.208  1.00  0.00     0.094 A 
ATOM      9  C8  UNK     1      49.821   9.967  -4.116  1.00  0.00     0.075 A 
ATOM     10  C9  UNK     1      50.890  10.219  -3.254  1.00  0.00     0.071 A 
ATOM     11  C10 UNK     1      51.655  11.377  -3.408  1.00  0.00     0.074 A 
ENDROOT
BRANCH   5  12
ATOM     12  C5  UNK     1      46.978  11.039  -7.779  1.00  0.00    -0.002 A 
ATOM     13  C12 UNK     1      47.037   9.849  -8.509  1.00  0.00     0.014 A 
ATOM     14  C14 UNK     1      45.949   9.449  -9.286  1.00  0.00     0.001 A 
ATOM     15  C15 UNK     1      44.798  10.235  -9.333  1.00  0.00     0.000 A 
ATOM     16  C13 UNK     1      44.736  11.424  -8.604  1.00  0.00     0.001 A 
ATOM     17  C11 UNK     1      45.823  11.824  -7.829  1.00  0.00     0.014 A 
ENDBRANCH   5  12
BRANCH  10  18
ATOM     18  O4  UNK     1      51.188   9.333  -2.264  1.00  0.00    -0.361 OA
ATOM     19  H10 UNK     1      50.409   8.777  -2.094  1.00  0.00     0.217 HD
ENDBRANCH  10  18
BRANCH   7  20
ATOM     20  O2  UNK     1      52.132  13.401  -4.528  1.00  0.00    -0.360 OA
ATOM     21  H9  UNK     1      51.908  13.896  -5.330  1.00  0.00     0.217 HD
ENDBRANCH   7  20
TORSDOF 3
ENDMDL
MODEL 14
REMARK VINA RESULT:      -5.1     11.812     14.259
REMARK  3 active torsions:
REMARK  status: ('A' for Active; 'I' for Inactive)
REMARK    1  A    between atoms: O2_2  and  C6_10 
REMARK    2  A    between atoms: O4_4  and  C9_13 
REMARK    3  A    between atoms: C3_7  and  C5_9 
ROOT
ATOM      1  O1  UNK     1      52.023   8.940  -3.991  1.00  0.00    -0.309 OA
ATOM      2  O3  UNK     1      51.960  11.096  -0.535  1.00  0.00    -0.287 OA
ATOM      3  C1  UNK     1      50.914  10.586  -2.592  1.00  0.00     0.081 A 
ATOM      4  C2  UNK     1      50.996   9.818  -3.751  1.00  0.00     0.095 A 
ATOM      5  C3  UNK     1      53.025   8.819  -3.041  1.00  0.00     0.090 A 
ATOM      6  C4  UNK     1      51.970  10.455  -1.577  1.00  0.00     0.190 A 
ATOM      7  C6  UNK     1      49.845  11.464  -2.400  1.00  0.00     0.085 A 
ATOM      8  C7  UNK     1      53.054   9.499  -1.883  1.00  0.00     0.094 A 
ATOM      9  C8  UNK     1      50.006   9.922  -4.729  1.00  0.00     0.075 A 
ATOM     10  C9  UNK     1      48.937  10.798  -4.542  1.00  0.00     0.071 A 
ATOM     11  C10 UNK     1      48.856  11.567  -3.379  1.00  0.00     0.074 A 
ENDROOT
BRANCH   5  12
ATOM     12  C5  UNK     1      54.075   7.845  -3.395  1.00  0.00    -0.002 A 
ATOM     13  C12 UNK     1      54.539   6.935  -2.442  1.00  0.00     0.014 A 
ATOM     14  C14 UNK     1      55.532   6.013  -2.776  1.00  0.00     0.001 A 
ATOM     15  C15 UNK     1      56.065   5.999  -4.065  1.00  0.00     0.000 A 
ATOM     16  C13 UNK     1      55.604   6.906  -5.020  1.00  0.00     0.001 A 
ATOM     17  C11 UNK     1      54.611   7.827  -4.686  1.00  0.00     0.014 A 
ENDBRANCH   5  12
BRANCH  10  18
ATOM     18  O4  UNK     1      47.968  10.901  -5.494  1.00  0.00    -0.361 OA
ATOM     19  H10 UNK     1      47.247  10.287  -5.277  1.00  0.00     0.217 HD
ENDBRANCH  10  18
BRANCH   7  20
ATOM     20  O2  UNK     1      49.719  12.236  -1.285  1.00  0.00    -0.360 OA
ATOM     21  H9  UNK     1      50.527  12.749  -1.134  1.00  0.00     0.217 HD
ENDBRANCH   7  20
TORSDOF 3
ENDMDL
MODEL 15
REMARK VINA RESULT:      -5.1     10.227     12.621
REMARK  3 active torsions:
REMARK  status: ('A' for Active; 'I' for Inactive)
REMARK    1  A    between atoms: O2_2  and  C6_10 
REMARK    2  A    between atoms: O4_4  and  C9_13 
REMARK    3  A    between atoms: C3_7  and  C5_9 
ROOT
ATOM      1  O1  UNK     1      49.737   9.074  -5.677  1.00  0.00    -0.309 OA
ATOM      2  O3  UNK     1      47.916  11.865  -8.020  1.00  0.00    -0.287 OA
ATOM      3  C1  UNK     1      48.748  11.282  -5.887  1.00  0.00     0.081 A 
ATOM      4  C2  UNK     1      49.374  10.285  -5.142  1.00  0.00     0.095 A 
ATOM      5  C3  UNK     1      49.461   8.833  -7.014  1.00  0.00     0.090 A 
ATOM      6  C4  UNK     1      48.461  11.034  -7.307  1.00  0.00     0.190 A 
ATOM      7  C6  UNK     1      48.401  12.497  -5.290  1.00  0.00     0.085 A 
ATOM      8  C7  UNK     1      48.868   9.715  -7.834  1.00  0.00     0.094 A 
ATOM      9  C8  UNK     1      49.660  10.496  -3.794  1.00  0.00     0.075 A 
ATOM     10  C9  UNK     1      49.315  11.707  -3.193  1.00  0.00     0.071 A 
ATOM     11  C10 UNK     1      48.687  12.705  -3.940  1.00  0.00     0.074 A 
ENDROOT
BRANCH   5  12
ATOM     12  C5  UNK     1      49.898   7.505  -7.488  1.00  0.00    -0.002 A 
ATOM     13  C12 UNK     1      51.250   7.260  -7.740  1.00  0.00     0.014 A 
ATOM     14  C14 UNK     1      51.664   6.005  -8.188  1.00  0.00     0.001 A 
ATOM     15  C15 UNK     1      50.728   4.991  -8.385  1.00  0.00     0.000 A 
ATOM     16  C13 UNK     1      49.376   5.232  -8.135  1.00  0.00     0.001 A 
ATOM     17  C11 UNK     1      48.962   6.486  -7.686  1.00  0.00     0.014 A 
ENDBRANCH   5  12
BRANCH  10  18
ATOM     18  O4  UNK     1      49.593  11.916  -1.876  1.00  0.00    -0.361 OA
ATOM     19  H10 UNK     1      50.023  12.783  -1.779  1.00  0.00     0.217 HD
ENDBRANCH  10  18
BRANCH   7  20
ATOM     20  O2  UNK     1      47.788  13.502  -5.974  1.00  0.00    -0.360 OA
ATOM     21  H9  UNK     1      46.966  13.186  -6.379  1.00  0.00     0.217 HD
ENDBRANCH   7  20
TORSDOF 3
ENDMDL
MODEL 16
REMARK VINA RESULT:      -5.0     10.065     12.720
REMARK  3 active torsions:
REMARK  status: ('A' for Active; 'I' for Inactive)
REMARK    1  A    between atoms: O2_2  and  C6_10 
REMARK    2  A    between atoms: O4_4  and  C9_13 
REMARK    3  A    between atoms: C3_7  and  C5_9 
ROOT
ATOM      1  O1  UNK     1      47.794  10.138  -7.749  1.00  0.00    -0.309 OA
ATOM      2  O3  UNK     1      44.017  10.640  -9.191  1.00  0.00    -0.287 OA
ATOM      3  C1  UNK     1      45.976   9.320  -9.136  1.00  0.00     0.081 A 
ATOM      4  C2  UNK     1      47.260   9.209  -8.606  1.00  0.00     0.095 A 
ATOM      5  C3  UNK     1      47.024  11.238  -7.403  1.00  0.00     0.090 A 
ATOM      6  C4  UNK     1      45.153  10.480  -8.765  1.00  0.00     0.190 A 
ATOM      7  C6  UNK     1      45.484   8.343 -10.004  1.00  0.00     0.085 A 
ATOM      8  C7  UNK     1      45.774  11.453  -7.843  1.00  0.00     0.094 A 
ATOM      9  C8  UNK     1      48.061   8.117  -8.940  1.00  0.00     0.075 A 
ATOM     10  C9  UNK     1      47.574   7.139  -9.807  1.00  0.00     0.071 A 
ATOM     11  C10 UNK     1      46.287   7.251 -10.337  1.00  0.00     0.074 A 
ENDROOT
BRANCH   5  12
ATOM     12  C5  UNK     1      47.691  12.170  -6.473  1.00  0.00    -0.002 A 
ATOM     13  C12 UNK     1      47.531  12.018  -5.093  1.00  0.00     0.014 A 
ATOM     14  C14 UNK     1      48.161  12.899  -4.213  1.00  0.00     0.001 A 
ATOM     15  C15 UNK     1      48.953  13.934  -4.710  1.00  0.00     0.000 A 
ATOM     16  C13 UNK     1      49.114  14.089  -6.087  1.00  0.00     0.001 A 
ATOM     17  C11 UNK     1      48.485  13.208  -6.967  1.00  0.00     0.014 A 
ENDBRANCH   5  12
BRANCH  10  18
ATOM     18  O4  UNK     1      48.353   6.071 -10.135  1.00  0.00    -0.361 OA
ATOM     19  H10 UNK     1      47.913   5.564 -10.838  1.00  0.00     0.217 HD
ENDBRANCH  10  18
BRANCH   7  20
ATOM     20  O2  UNK     1      44.237   8.405 -10.548  1.00  0.00    -0.360 OA
ATOM     21  H9  UNK     1      44.009   9.320 -10.772  1.00  0.00     0.217 HD
ENDBRANCH   7  20
TORSDOF 3
ENDMDL
MODEL 17
REMARK VINA RESULT:      -5.0     10.564     12.815
REMARK  3 active torsions:
REMARK  status: ('A' for Active; 'I' for Inactive)
REMARK    1  A    between atoms: O2_2  and  C6_10 
REMARK    2  A    between atoms: O4_4  and  C9_13 
REMARK    3  A    between atoms: C3_7  and  C5_9 
ROOT
ATOM      1  O1  UNK     1      49.028  13.340  -8.014  1.00  0.00    -0.309 OA
ATOM      2  O3  UNK     1      48.750   9.392  -7.048  1.00  0.00    -0.287 OA
ATOM      3  C1  UNK     1      48.745  11.636  -6.307  1.00  0.00     0.081 A 
ATOM      4  C2  UNK     1      48.847  12.967  -6.706  1.00  0.00     0.095 A 
ATOM      5  C3  UNK     1      49.122  12.347  -8.977  1.00  0.00     0.090 A 
ATOM      6  C4  UNK     1      48.834  10.580  -7.326  1.00  0.00     0.190 A 
ATOM      7  C6  UNK     1      48.560  11.314  -4.960  1.00  0.00     0.085 A 
ATOM      8  C7  UNK     1      49.032  11.033  -8.719  1.00  0.00     0.094 A 
ATOM      9  C8  UNK     1      48.764  13.988  -5.759  1.00  0.00     0.075 A 
ATOM     10  C9  UNK     1      48.579  13.671  -4.412  1.00  0.00     0.071 A 
ATOM     11  C10 UNK     1      48.477  12.337  -4.015  1.00  0.00     0.074 A 
ENDROOT
BRANCH   5  12
ATOM     12  C5  UNK     1      49.309  12.858 -10.349  1.00  0.00    -0.002 A 
ATOM     13  C12 UNK     1      48.212  12.994 -11.204  1.00  0.00     0.014 A 
ATOM     14  C14 UNK     1      48.389  13.475 -12.501  1.00  0.00     0.001 A 
ATOM     15  C15 UNK     1      49.663  13.823 -12.948  1.00  0.00     0.000 A 
ATOM     16  C13 UNK     1      50.761  13.689 -12.098  1.00  0.00     0.001 A 
ATOM     17  C11 UNK     1      50.584  13.207 -10.801  1.00  0.00     0.014 A 
ENDBRANCH   5  12
BRANCH  10  18
ATOM     18  O4  UNK     1      48.497  14.665  -3.485  1.00  0.00    -0.361 OA
ATOM     19  H10 UNK     1      49.304  14.659  -2.944  1.00  0.00     0.217 HD
ENDBRANCH  10  18
BRANCH   7  20
ATOM     20  O2  UNK     1      48.454  10.029  -4.520  1.00  0.00    -0.360 OA
ATOM     21  H9  UNK     1      48.244   9.435  -5.256  1.00  0.00     0.217 HD
ENDBRANCH   7  20
TORSDOF 3
ENDMDL
MODEL 18
REMARK VINA RESULT:      -5.0     11.080     12.917
REMARK  3 active torsions:
REMARK  status: ('A' for Active; 'I' for Inactive)
REMARK    1  A    between atoms: O2_2  and  C6_10 
REMARK    2  A    between atoms: O4_4  and  C9_13 
REMARK    3  A    between atoms: C3_7  and  C5_9 
ROOT
ATOM      1  O1  UNK     1      44.645  12.831 -10.763  1.00  0.00    -0.309 OA
ATOM      2  O3  UNK     1      41.249  11.425 -12.521  1.00  0.00    -0.287 OA
ATOM      3  C1  UNK     1      43.032  11.034 -11.019  1.00  0.00     0.081 A 
ATOM      4  C2  UNK     1      44.184  11.576 -10.454  1.00  0.00     0.095 A 
ATOM      5  C3  UNK     1      43.936  13.588 -11.682  1.00  0.00     0.090 A 
ATOM      6  C4  UNK     1      42.271  11.837 -11.988  1.00  0.00     0.190 A 
ATOM      7  C6  UNK     1      42.609   9.750 -10.668  1.00  0.00     0.085 A 
ATOM      8  C7  UNK     1      42.809  13.179 -12.289  1.00  0.00     0.094 A 
ATOM      9  C8  UNK     1      44.923  10.836  -9.531  1.00  0.00     0.075 A 
ATOM     10  C9  UNK     1      44.505   9.553  -9.177  1.00  0.00     0.071 A 
ATOM     11  C10 UNK     1      43.350   9.012  -9.744  1.00  0.00     0.074 A 
ENDROOT
BRANCH   5  12
ATOM     12  C5  UNK     1      44.514  14.922 -11.936  1.00  0.00    -0.002 A 
ATOM     13  C12 UNK     1      45.788  15.039 -12.498  1.00  0.00     0.014 A 
ATOM     14  C14 UNK     1      46.335  16.300 -12.738  1.00  0.00     0.001 A 
ATOM     15  C15 UNK     1      45.611  17.448 -12.417  1.00  0.00     0.000 A 
ATOM     16  C13 UNK     1      44.338  17.334 -11.855  1.00  0.00     0.001 A 
ATOM     17  C11 UNK     1      43.791  16.074 -11.616  1.00  0.00     0.014 A 
ENDBRANCH   5  12
BRANCH  10  18
ATOM     18  O4  UNK     1      45.223   8.828  -8.275  1.00  0.00    -0.361 OA
ATOM     19  H10 UNK     1      45.393   9.379  -7.492  1.00  0.00     0.217 HD
ENDBRANCH  10  18
BRANCH   7  20
ATOM     20  O2  UNK     1      41.490   9.176 -11.191  1.00  0.00    -0.360 OA
ATOM     21  H9  UNK     1      41.692   8.296 -11.543  1.00  0.00     0.217 HD
ENDBRANCH   7  20
TORSDOF 3
ENDMDL
MODEL 19
REMARK VINA RESULT:      -5.0     11.170     13.136
REMARK  3 active torsions:
REMARK  status: ('A' for Active; 'I' for Inactive)
REMARK    1  A    between atoms: O2_2  and  C6_10 
REMARK    2  A    between atoms: O4_4  and  C9_13 
REMARK    3  A    between atoms: C3_7  and  C5_9 
ROOT
ATOM      1  O1  UNK     1      50.605  14.158  -7.097  1.00  0.00    -0.309 OA
ATOM      2  O3  UNK     1      49.319  10.318  -6.646  1.00  0.00    -0.287 OA
ATOM      3  C1  UNK     1      49.201  12.564  -5.920  1.00  0.00     0.081 A 
ATOM      4  C2  UNK     1      49.681  13.855  -6.128  1.00  0.00     0.095 A 
ATOM      5  C3  UNK     1      51.084  13.132  -7.897  1.00  0.00     0.090 A 
ATOM      6  C4  UNK     1      49.699  11.474  -6.772  1.00  0.00     0.190 A 
ATOM      7  C6  UNK     1      48.260  12.313  -4.918  1.00  0.00     0.085 A 
ATOM      8  C7  UNK     1      50.694  11.851  -7.798  1.00  0.00     0.094 A 
ATOM      9  C8  UNK     1      49.223  14.907  -5.335  1.00  0.00     0.075 A 
ATOM     10  C9  UNK     1      48.283  14.661  -4.333  1.00  0.00     0.071 A 
ATOM     11  C10 UNK     1      47.803  13.367  -4.126  1.00  0.00     0.074 A 
ENDROOT
BRANCH   5  12
ATOM     12  C5  UNK     1      52.066  13.568  -8.909  1.00  0.00    -0.002 A 
ATOM     13  C12 UNK     1      52.398  12.726  -9.973  1.00  0.00     0.014 A 
ATOM     14  C14 UNK     1      53.327  13.137 -10.930  1.00  0.00     0.001 A 
ATOM     15  C15 UNK     1      53.926  14.392 -10.826  1.00  0.00     0.000 A 
ATOM     16  C13 UNK     1      53.598  15.235  -9.764  1.00  0.00     0.001 A 
ATOM     17  C11 UNK     1      52.669  14.824  -8.808  1.00  0.00     0.014 A 
ENDBRANCH   5  12
BRANCH  10  18
ATOM     18  O4  UNK     1      47.833  15.686  -3.558  1.00  0.00    -0.361 OA
ATOM     19  H10 UNK     1      48.319  16.495  -3.791  1.00  0.00     0.217 HD
ENDBRANCH  10  18
BRANCH   7  20
ATOM     20  O2  UNK     1      47.759  11.070  -4.675  1.00  0.00    -0.360 OA
ATOM     21  H9  UNK     1      46.870  11.130  -4.296  1.00  0.00     0.217 HD
ENDBRANCH   7  20
TORSDOF 3
ENDMDL
MODEL 20
REMARK VINA RESULT:      -5.0      9.848     12.183
REMARK  3 active torsions:
REMARK  status: ('A' for Active; 'I' for Inactive)
REMARK    1  A    between atoms: O2_2  and  C6_10 
REMARK    2  A    between atoms: O4_4  and  C9_13 
REMARK    3  A    between atoms: C3_7  and  C5_9 
ROOT
ATOM      1  O1  UNK     1      47.866  12.483  -7.723  1.00  0.00    -0.309 OA
ATOM      2  O3  UNK     1      48.931   8.853  -6.210  1.00  0.00    -0.287 OA
ATOM      3  C1  UNK     1      48.599  11.160  -5.822  1.00  0.00     0.081 A 
ATOM      4  C2  UNK     1      48.223  12.370  -6.402  1.00  0.00     0.095 A 
ATOM      5  C3  UNK     1      47.888  11.344  -8.513  1.00  0.00     0.090 A 
ATOM      6  C4  UNK     1      48.615   9.948  -6.654  1.00  0.00     0.190 A 
ATOM      7  C6  UNK     1      48.953  11.104  -4.472  1.00  0.00     0.085 A 
ATOM      8  C7  UNK     1      48.225  10.122  -8.068  1.00  0.00     0.094 A 
ATOM      9  C8  UNK     1      48.198  13.534  -5.635  1.00  0.00     0.075 A 
ATOM     10  C9  UNK     1      48.551  13.483  -4.286  1.00  0.00     0.071 A 
ATOM     11  C10 UNK     1      48.926  12.270  -3.706  1.00  0.00     0.074 A 
ENDROOT
BRANCH   5  12
ATOM     12  C5  UNK     1      47.481  11.576  -9.912  1.00  0.00    -0.002 A 
ATOM     13  C12 UNK     1      48.183  12.488 -10.705  1.00  0.00     0.014 A 
ATOM     14  C14 UNK     1      47.798  12.708 -12.028  1.00  0.00     0.001 A 
ATOM     15  C15 UNK     1      46.712  12.016 -12.563  1.00  0.00     0.000 A 
ATOM     16  C13 UNK     1      46.009  11.105 -11.774  1.00  0.00     0.001 A 
ATOM     17  C11 UNK     1      46.394  10.885 -10.452  1.00  0.00     0.014 A 
ENDBRANCH   5  12
BRANCH  10  18
ATOM     18  O4  UNK     1      48.526  14.618  -3.533  1.00  0.00    -0.361 OA
ATOM     19  H10 UNK     1      48.743  14.390  -2.613  1.00  0.00     0.217 HD
ENDBRANCH  10  18
BRANCH   7  20
ATOM     20  O2  UNK     1      49.326   9.947  -3.858  1.00  0.00    -0.360 OA
ATOM     21  H9  UNK     1      50.196  10.047  -3.444  1.00  0.00     0.217 HD
ENDBRANCH   7  20
TORSDOF 3
ENDMDL
