MODEL 1
REMARK VINA RESULT:      -6.0      0.000      0.000
REMARK  3 active torsions:
REMARK  status: ('A' for Active; 'I' for Inactive)
REMARK    1  A    between atoms: O2_2  and  C6_10 
REMARK    2  A    between atoms: O4_4  and  C9_13 
REMARK    3  A    between atoms: C3_7  and  C5_9 
ROOT
ATOM      1  O1  UNK     1      43.913  -0.031   9.046  1.00  0.00    -0.309 OA
ATOM      2  O3  UNK     1      40.924   2.167   7.360  1.00  0.00    -0.287 OA
ATOM      3  C1  UNK     1      41.535   0.303   8.678  1.00  0.00     0.081 A 
ATOM      4  C2  UNK     1      42.604  -0.403   9.227  1.00  0.00     0.095 A 
ATOM      5  C3  UNK     1      44.180   1.091   8.277  1.00  0.00     0.090 A 
ATOM      6  C4  UNK     1      41.814   1.499   7.870  1.00  0.00     0.190 A 
ATOM      7  C6  UNK     1      40.222  -0.122   8.896  1.00  0.00     0.085 A 
ATOM      8  C7  UNK     1      43.237   1.856   7.702  1.00  0.00     0.094 A 
ATOM      9  C8  UNK     1      42.367  -1.540  10.000  1.00  0.00     0.075 A 
ATOM     10  C9  UNK     1      41.057  -1.968  10.219  1.00  0.00     0.071 A 
ATOM     11  C10 UNK     1      39.988  -1.260   9.669  1.00  0.00     0.074 A 
ENDROOT
BRANCH   5  12
ATOM     12  C5  UNK     1      45.617   1.406   8.152  1.00  0.00    -0.002 A 
ATOM     13  C12 UNK     1      46.077   2.166   7.074  1.00  0.00     0.014 A 
ATOM     14  C14 UNK     1      47.436   2.463   6.954  1.00  0.00     0.001 A 
ATOM     15  C15 UNK     1      48.337   2.001   7.913  1.00  0.00     0.000 A 
ATOM     16  C13 UNK     1      47.881   1.241   8.991  1.00  0.00     0.001 A 
ATOM     17  C11 UNK     1      46.523   0.945   9.110  1.00  0.00     0.014 A 
ENDBRANCH   5  12
BRANCH  10  18
ATOM     18  O4  UNK     1      40.822  -3.077  10.974  1.00  0.00    -0.361 OA
ATOM     19  H10 UNK     1      40.139  -2.870  11.634  1.00  0.00     0.217 HD
ENDBRANCH  10  18
BRANCH   7  20
ATOM     20  O2  UNK     1      39.144   0.533   8.382  1.00  0.00    -0.360 OA
ATOM     21  H9  UNK     1      39.200   0.572   7.415  1.00  0.00     0.217 HD
ENDBRANCH   7  20
TORSDOF 3
ENDMDL
MODEL 2
REMARK VINA RESULT:      -6.0      1.424      2.971
REMARK  3 active torsions:
REMARK  status: ('A' for Active; 'I' for Inactive)
REMARK    1  A    between atoms: O2_2  and  C6_10 
REMARK    2  A    between atoms: O4_4  and  C9_13 
REMARK    3  A    between atoms: C3_7  and  C5_9 
ROOT
ATOM      1  O1  UNK     1      42.718   1.238   7.906  1.00  0.00    -0.309 OA
ATOM      2  O3  UNK     1      41.449  -1.553  10.589  1.00  0.00    -0.287 OA
ATOM      3  C1  UNK     1      40.882  -0.014   8.888  1.00  0.00     0.081 A 
ATOM      4  C2  UNK     1      41.384   0.929   7.992  1.00  0.00     0.095 A 
ATOM      5  C3  UNK     1      43.603   0.588   8.752  1.00  0.00     0.090 A 
ATOM      6  C4  UNK     1      41.818  -0.712   9.781  1.00  0.00     0.190 A 
ATOM      7  C6  UNK     1      39.514  -0.288   8.932  1.00  0.00     0.085 A 
ATOM      8  C7  UNK     1      43.243  -0.343   9.651  1.00  0.00     0.094 A 
ATOM      9  C8  UNK     1      40.517   1.605   7.133  1.00  0.00     0.075 A 
ATOM     10  C9  UNK     1      39.149   1.334   7.174  1.00  0.00     0.071 A 
ATOM     11  C10 UNK     1      38.649   0.389   8.071  1.00  0.00     0.074 A 
ENDROOT
BRANCH   5  12
ATOM     12  C5  UNK     1      45.012   0.990   8.572  1.00  0.00    -0.002 A 
ATOM     13  C12 UNK     1      45.387   1.755   7.464  1.00  0.00     0.014 A 
ATOM     14  C14 UNK     1      46.718   2.134   7.293  1.00  0.00     0.001 A 
ATOM     15  C15 UNK     1      47.679   1.751   8.229  1.00  0.00     0.000 A 
ATOM     16  C13 UNK     1      47.308   0.987   9.336  1.00  0.00     0.001 A 
ATOM     17  C11 UNK     1      45.977   0.608   9.507  1.00  0.00     0.014 A 
ENDBRANCH   5  12
BRANCH  10  18
ATOM     18  O4  UNK     1      38.301   1.991   6.335  1.00  0.00    -0.361 OA
ATOM     19  H10 UNK     1      37.386   1.756   6.565  1.00  0.00     0.217 HD
ENDBRANCH  10  18
BRANCH   7  20
ATOM     20  O2  UNK     1      38.975  -1.201   9.788  1.00  0.00    -0.360 OA
ATOM     21  H9  UNK     1      38.423  -0.760  10.451  1.00  0.00     0.217 HD
ENDBRANCH   7  20
TORSDOF 3
ENDMDL
MODEL 3
REMARK VINA RESULT:      -6.0      1.425      3.171
REMARK  3 active torsions:
REMARK  status: ('A' for Active; 'I' for Inactive)
REMARK    1  A    between atoms: O2_2  and  C6_10 
REMARK    2  A    between atoms: O4_4  and  C9_13 
REMARK    3  A    between atoms: C3_7  and  C5_9 
ROOT
ATOM      1  O1  UNK     1      42.719   1.233   7.908  1.00  0.00    -0.309 OA
ATOM      2  O3  UNK     1      41.445  -1.553  10.595  1.00  0.00    -0.287 OA
ATOM      3  C1  UNK     1      40.881  -0.016   8.891  1.00  0.00     0.081 A 
ATOM      4  C2  UNK     1      41.384   0.925   7.994  1.00  0.00     0.095 A 
ATOM      5  C3  UNK     1      43.602   0.583   8.757  1.00  0.00     0.090 A 
ATOM      6  C4  UNK     1      41.816  -0.714   9.786  1.00  0.00     0.190 A 
ATOM      7  C6  UNK     1      39.512  -0.289   8.934  1.00  0.00     0.085 A 
ATOM      8  C7  UNK     1      43.241  -0.346   9.657  1.00  0.00     0.094 A 
ATOM      9  C8  UNK     1      40.519   1.600   7.133  1.00  0.00     0.075 A 
ATOM     10  C9  UNK     1      39.150   1.330   7.173  1.00  0.00     0.071 A 
ATOM     11  C10 UNK     1      38.649   0.387   8.071  1.00  0.00     0.074 A 
ENDROOT
BRANCH   5  12
ATOM     12  C5  UNK     1      45.011   0.983   8.577  1.00  0.00    -0.002 A 
ATOM     13  C12 UNK     1      45.975   0.598   9.513  1.00  0.00     0.014 A 
ATOM     14  C14 UNK     1      47.307   0.976   9.344  1.00  0.00     0.001 A 
ATOM     15  C15 UNK     1      47.681   1.740   8.238  1.00  0.00     0.000 A 
ATOM     16  C13 UNK     1      46.721   2.126   7.302  1.00  0.00     0.001 A 
ATOM     17  C11 UNK     1      45.390   1.748   7.471  1.00  0.00     0.014 A 
ENDBRANCH   5  12
BRANCH  10  18
ATOM     18  O4  UNK     1      38.303   1.986   6.332  1.00  0.00    -0.361 OA
ATOM     19  H10 UNK     1      37.956   1.355   5.679  1.00  0.00     0.217 HD
ENDBRANCH  10  18
BRANCH   7  20
ATOM     20  O2  UNK     1      38.972  -1.200   9.791  1.00  0.00    -0.360 OA
ATOM     21  H9  UNK     1      39.338  -2.082   9.624  1.00  0.00     0.217 HD
ENDBRANCH   7  20
TORSDOF 3
ENDMDL
MODEL 4
REMARK VINA RESULT:      -6.0      2.258      3.212
REMARK  3 active torsions:
REMARK  status: ('A' for Active; 'I' for Inactive)
REMARK    1  A    between atoms: O2_2  and  C6_10 
REMARK    2  A    between atoms: O4_4  and  C9_13 
REMARK    3  A    between atoms: C3_7  and  C5_9 
ROOT
ATOM      1  O1  UNK     1      43.572   1.313   8.509  1.00  0.00    -0.309 OA
ATOM      2  O3  UNK     1      42.708   4.750  10.519  1.00  0.00    -0.287 OA
ATOM      3  C1  UNK     1      41.914   2.937   9.228  1.00  0.00     0.081 A 
ATOM      4  C2  UNK     1      42.279   1.769   8.559  1.00  0.00     0.095 A 
ATOM      5  C3  UNK     1      44.558   2.051   9.145  1.00  0.00     0.090 A 
ATOM      6  C4  UNK     1      42.956   3.718   9.911  1.00  0.00     0.190 A 
ATOM      7  C6  UNK     1      40.581   3.354   9.246  1.00  0.00     0.085 A 
ATOM      8  C7  UNK     1      44.332   3.187   9.825  1.00  0.00     0.094 A 
ATOM      9  C8  UNK     1      41.310   1.009   7.905  1.00  0.00     0.075 A 
ATOM     10  C9  UNK     1      39.977   1.422   7.920  1.00  0.00     0.071 A 
ATOM     11  C10 UNK     1      39.614   2.591   8.591  1.00  0.00     0.074 A 
ENDROOT
BRANCH   5  12
ATOM     12  C5  UNK     1      45.910   1.469   9.034  1.00  0.00    -0.002 A 
ATOM     13  C12 UNK     1      46.307   0.448   9.902  1.00  0.00     0.014 A 
ATOM     14  C14 UNK     1      47.585  -0.102   9.798  1.00  0.00     0.001 A 
ATOM     15  C15 UNK     1      48.469   0.365   8.826  1.00  0.00     0.000 A 
ATOM     16  C13 UNK     1      48.076   1.383   7.958  1.00  0.00     0.001 A 
ATOM     17  C11 UNK     1      46.798   1.934   8.061  1.00  0.00     0.014 A 
ENDBRANCH   5  12
BRANCH  10  18
ATOM     18  O4  UNK     1      39.028   0.681   7.283  1.00  0.00    -0.361 OA
ATOM     19  H10 UNK     1      39.195   0.712   6.326  1.00  0.00     0.217 HD
ENDBRANCH  10  18
BRANCH   7  20
ATOM     20  O2  UNK     1      40.175   4.486   9.885  1.00  0.00    -0.360 OA
ATOM     21  H9  UNK     1      39.417   4.298  10.459  1.00  0.00     0.217 HD
ENDBRANCH   7  20
TORSDOF 3
ENDMDL
MODEL 5
REMARK VINA RESULT:      -6.0      2.268      3.040
REMARK  3 active torsions:
REMARK  status: ('A' for Active; 'I' for Inactive)
REMARK    1  A    between atoms: O2_2  and  C6_10 
REMARK    2  A    between atoms: O4_4  and  C9_13 
REMARK    3  A    between atoms: C3_7  and  C5_9 
ROOT
ATOM      1  O1  UNK     1      43.567   1.311   8.508  1.00  0.00    -0.309 OA
ATOM      2  O3  UNK     1      42.694   4.741  10.527  1.00  0.00    -0.287 OA
ATOM      3  C1  UNK     1      41.907   2.934   9.222  1.00  0.00     0.081 A 
ATOM      4  C2  UNK     1      42.274   1.770   8.551  1.00  0.00     0.095 A 
ATOM      5  C3  UNK     1      44.550   2.045   9.154  1.00  0.00     0.090 A 
ATOM      6  C4  UNK     1      42.945   3.711   9.916  1.00  0.00     0.190 A 
ATOM      7  C6  UNK     1      40.575   3.354   9.233  1.00  0.00     0.085 A 
ATOM      8  C7  UNK     1      44.321   3.177   9.838  1.00  0.00     0.094 A 
ATOM      9  C8  UNK     1      41.308   1.014   7.886  1.00  0.00     0.075 A 
ATOM     10  C9  UNK     1      39.976   1.429   7.895  1.00  0.00     0.071 A 
ATOM     11  C10 UNK     1      39.611   2.596   8.568  1.00  0.00     0.074 A 
ENDROOT
BRANCH   5  12
ATOM     12  C5  UNK     1      45.901   1.460   9.050  1.00  0.00    -0.002 A 
ATOM     13  C12 UNK     1      46.794   1.925   8.080  1.00  0.00     0.014 A 
ATOM     14  C14 UNK     1      48.071   1.372   7.981  1.00  0.00     0.001 A 
ATOM     15  C15 UNK     1      48.461   0.355   8.851  1.00  0.00     0.000 A 
ATOM     16  C13 UNK     1      47.572  -0.111   9.821  1.00  0.00     0.001 A 
ATOM     17  C11 UNK     1      46.295   0.441   9.920  1.00  0.00     0.014 A 
ENDBRANCH   5  12
BRANCH  10  18
ATOM     18  O4  UNK     1      39.031   0.693   7.247  1.00  0.00    -0.361 OA
ATOM     19  H10 UNK     1      39.328   0.528   6.337  1.00  0.00     0.217 HD
ENDBRANCH  10  18
BRANCH   7  20
ATOM     20  O2  UNK     1      40.166   4.484   9.875  1.00  0.00    -0.360 OA
ATOM     21  H9  UNK     1      39.902   5.161   9.234  1.00  0.00     0.217 HD
ENDBRANCH   7  20
TORSDOF 3
ENDMDL
MODEL 6
REMARK VINA RESULT:      -6.0      2.475      6.794
REMARK  3 active torsions:
REMARK  status: ('A' for Active; 'I' for Inactive)
REMARK    1  A    between atoms: O2_2  and  C6_10 
REMARK    2  A    between atoms: O4_4  and  C9_13 
REMARK    3  A    between atoms: C3_7  and  C5_9 
ROOT
ATOM      1  O1  UNK     1      44.630   1.763   7.495  1.00  0.00    -0.309 OA
ATOM      2  O3  UNK     1      46.448   0.373  10.865  1.00  0.00    -0.287 OA
ATOM      3  C1  UNK     1      46.673   1.440   8.769  1.00  0.00     0.081 A 
ATOM      4  C2  UNK     1      45.988   1.894   7.643  1.00  0.00     0.095 A 
ATOM      5  C3  UNK     1      43.911   1.146   8.507  1.00  0.00     0.090 A 
ATOM      6  C4  UNK     1      45.913   0.793   9.849  1.00  0.00     0.190 A 
ATOM      7  C6  UNK     1      48.057   1.599   8.866  1.00  0.00     0.085 A 
ATOM      8  C7  UNK     1      44.455   0.674   9.640  1.00  0.00     0.094 A 
ATOM      9  C8  UNK     1      46.685   2.513   6.605  1.00  0.00     0.075 A 
ATOM     10  C9  UNK     1      48.068   2.674   6.698  1.00  0.00     0.071 A 
ATOM     11  C10 UNK     1      48.752   2.218   7.826  1.00  0.00     0.074 A 
ENDROOT
BRANCH   5  12
ATOM     12  C5  UNK     1      42.460   1.064   8.249  1.00  0.00    -0.002 A 
ATOM     13  C12 UNK     1      41.793   2.135   7.647  1.00  0.00     0.014 A 
ATOM     14  C14 UNK     1      40.421   2.058   7.404  1.00  0.00     0.001 A 
ATOM     15  C15 UNK     1      39.712   0.911   7.761  1.00  0.00     0.000 A 
ATOM     16  C13 UNK     1      40.375  -0.159   8.362  1.00  0.00     0.001 A 
ATOM     17  C11 UNK     1      41.746  -0.083   8.605  1.00  0.00     0.014 A 
ENDBRANCH   5  12
BRANCH  10  18
ATOM     18  O4  UNK     1      48.751   3.279   5.687  1.00  0.00    -0.361 OA
ATOM     19  H10 UNK     1      48.158   3.380   4.923  1.00  0.00     0.217 HD
ENDBRANCH  10  18
BRANCH   7  20
ATOM     20  O2  UNK     1      48.771   1.173   9.945  1.00  0.00    -0.360 OA
ATOM     21  H9  UNK     1      49.032   1.925  10.497  1.00  0.00     0.217 HD
ENDBRANCH   7  20
TORSDOF 3
ENDMDL
MODEL 7
REMARK VINA RESULT:      -5.9      1.632      2.186
REMARK  3 active torsions:
REMARK  status: ('A' for Active; 'I' for Inactive)
REMARK    1  A    between atoms: O2_2  and  C6_10 
REMARK    2  A    between atoms: O4_4  and  C9_13 
REMARK    3  A    between atoms: C3_7  and  C5_9 
ROOT
ATOM      1  O1  UNK     1      41.877  -0.432   8.445  1.00  0.00    -0.309 OA
ATOM      2  O3  UNK     1      39.166   2.294   7.097  1.00  0.00    -0.287 OA
ATOM      3  C1  UNK     1      39.571   0.113   7.910  1.00  0.00     0.081 A 
ATOM      4  C2  UNK     1      40.550  -0.770   8.363  1.00  0.00     0.095 A 
ATOM      5  C3  UNK     1      42.260   0.842   8.052  1.00  0.00     0.090 A 
ATOM      6  C4  UNK     1      39.971   1.467   7.502  1.00  0.00     0.190 A 
ATOM      7  C6  UNK     1      38.234  -0.286   7.848  1.00  0.00     0.085 A 
ATOM      8  C7  UNK     1      41.411   1.782   7.606  1.00  0.00     0.094 A 
ATOM      9  C8  UNK     1      40.197  -2.060   8.759  1.00  0.00     0.075 A 
ATOM     10  C9  UNK     1      38.862  -2.463   8.698  1.00  0.00     0.071 A 
ATOM     11  C10 UNK     1      37.883  -1.577   8.244  1.00  0.00     0.074 A 
ENDROOT
BRANCH   5  12
ATOM     12  C5  UNK     1      43.706   1.102   8.187  1.00  0.00    -0.002 A 
ATOM     13  C12 UNK     1      44.367   1.894   7.244  1.00  0.00     0.014 A 
ATOM     14  C14 UNK     1      45.735   2.141   7.370  1.00  0.00     0.001 A 
ATOM     15  C15 UNK     1      46.446   1.597   8.439  1.00  0.00     0.000 A 
ATOM     16  C13 UNK     1      45.789   0.806   9.383  1.00  0.00     0.001 A 
ATOM     17  C11 UNK     1      44.422   0.560   9.257  1.00  0.00     0.014 A 
ENDBRANCH   5  12
BRANCH  10  18
ATOM     18  O4  UNK     1      38.514  -3.722   9.085  1.00  0.00    -0.361 OA
ATOM     19  H10 UNK     1      37.931  -3.663   9.860  1.00  0.00     0.217 HD
ENDBRANCH  10  18
BRANCH   7  20
ATOM     20  O2  UNK     1      37.241   0.539   7.414  1.00  0.00    -0.360 OA
ATOM     21  H9  UNK     1      37.331   1.417   7.813  1.00  0.00     0.217 HD
ENDBRANCH   7  20
TORSDOF 3
ENDMDL
MODEL 8
REMARK VINA RESULT:      -5.8      2.357      3.227
REMARK  3 active torsions:
REMARK  status: ('A' for Active; 'I' for Inactive)
REMARK    1  A    between atoms: O2_2  and  C6_10 
REMARK    2  A    between atoms: O4_4  and  C9_13 
REMARK    3  A    between atoms: C3_7  and  C5_9 
ROOT
ATOM      1  O1  UNK     1      43.944   2.256   7.984  1.00  0.00    -0.309 OA
ATOM      2  O3  UNK     1      42.553   5.373  10.209  1.00  0.00    -0.287 OA
ATOM      3  C1  UNK     1      42.068   3.370   9.052  1.00  0.00     0.081 A 
ATOM      4  C2  UNK     1      42.610   2.331   8.297  1.00  0.00     0.095 A 
ATOM      5  C3  UNK     1      44.786   3.261   8.433  1.00  0.00     0.090 A 
ATOM      6  C4  UNK     1      42.959   4.433   9.539  1.00  0.00     0.190 A 
ATOM      7  C6  UNK     1      40.702   3.395   9.341  1.00  0.00     0.085 A 
ATOM      8  C7  UNK     1      44.385   4.308   9.173  1.00  0.00     0.094 A 
ATOM      9  C8  UNK     1      41.787   1.309   7.825  1.00  0.00     0.075 A 
ATOM     10  C9  UNK     1      40.421   1.331   8.111  1.00  0.00     0.071 A 
ATOM     11  C10 UNK     1      39.881   2.371   8.868  1.00  0.00     0.074 A 
ENDROOT
BRANCH   5  12
ATOM     12  C5  UNK     1      46.199   3.079   8.046  1.00  0.00    -0.002 A 
ATOM     13  C12 UNK     1      47.196   3.849   8.651  1.00  0.00     0.014 A 
ATOM     14  C14 UNK     1      48.532   3.678   8.285  1.00  0.00     0.001 A 
ATOM     15  C15 UNK     1      48.874   2.736   7.315  1.00  0.00     0.000 A 
ATOM     16  C13 UNK     1      47.881   1.966   6.710  1.00  0.00     0.001 A 
ATOM     17  C11 UNK     1      46.546   2.137   7.075  1.00  0.00     0.014 A 
ENDBRANCH   5  12
BRANCH  10  18
ATOM     18  O4  UNK     1      39.615   0.333   7.652  1.00  0.00    -0.361 OA
ATOM     19  H10 UNK     1      38.718   0.467   8.003  1.00  0.00     0.217 HD
ENDBRANCH  10  18
BRANCH   7  20
ATOM     20  O2  UNK     1      40.125   4.387  10.075  1.00  0.00    -0.360 OA
ATOM     21  H9  UNK     1      40.075   5.206   9.559  1.00  0.00     0.217 HD
ENDBRANCH   7  20
TORSDOF 3
ENDMDL
MODEL 9
REMARK VINA RESULT:      -5.8      2.578      3.301
REMARK  3 active torsions:
REMARK  status: ('A' for Active; 'I' for Inactive)
REMARK    1  A    between atoms: O2_2  and  C6_10 
REMARK    2  A    between atoms: O4_4  and  C9_13 
REMARK    3  A    between atoms: C3_7  and  C5_9 
ROOT
ATOM      1  O1  UNK     1      42.121   1.084   9.314  1.00  0.00    -0.309 OA
ATOM      2  O3  UNK     1      38.969   1.238   6.737  1.00  0.00    -0.287 OA
ATOM      3  C1  UNK     1      40.349  -0.081   8.130  1.00  0.00     0.081 A 
ATOM      4  C2  UNK     1      41.434  -0.063   9.004  1.00  0.00     0.095 A 
ATOM      5  C3  UNK     1      41.720   2.273   8.725  1.00  0.00     0.090 A 
ATOM      6  C4  UNK     1      39.915   1.180   7.510  1.00  0.00     0.190 A 
ATOM      7  C6  UNK     1      39.686  -1.279   7.851  1.00  0.00     0.085 A 
ATOM      8  C7  UNK     1      40.688   2.385   7.874  1.00  0.00     0.094 A 
ATOM      9  C8  UNK     1      41.865  -1.245   9.606  1.00  0.00     0.075 A 
ATOM     10  C9  UNK     1      41.206  -2.444   9.330  1.00  0.00     0.071 A 
ATOM     11  C10 UNK     1      40.119  -2.460   8.455  1.00  0.00     0.074 A 
ENDROOT
BRANCH   5  12
ATOM     12  C5  UNK     1      42.522   3.445   9.132  1.00  0.00    -0.002 A 
ATOM     13  C12 UNK     1      41.956   4.435   9.939  1.00  0.00     0.014 A 
ATOM     14  C14 UNK     1      42.713   5.543  10.323  1.00  0.00     0.001 A 
ATOM     15  C15 UNK     1      44.037   5.663   9.903  1.00  0.00     0.000 A 
ATOM     16  C13 UNK     1      44.605   4.675   9.097  1.00  0.00     0.001 A 
ATOM     17  C11 UNK     1      43.849   3.568   8.713  1.00  0.00     0.014 A 
ENDBRANCH   5  12
BRANCH  10  18
ATOM     18  O4  UNK     1      41.623  -3.600   9.917  1.00  0.00    -0.361 OA
ATOM     19  H10 UNK     1      40.904  -3.950  10.469  1.00  0.00     0.217 HD
ENDBRANCH  10  18
BRANCH   7  20
ATOM     20  O2  UNK     1      38.621  -1.349   7.005  1.00  0.00    -0.360 OA
ATOM     21  H9  UNK     1      37.790  -1.312   7.502  1.00  0.00     0.217 HD
ENDBRANCH   7  20
TORSDOF 3
ENDMDL
MODEL 10
REMARK VINA RESULT:      -5.7      2.702      6.650
REMARK  3 active torsions:
REMARK  status: ('A' for Active; 'I' for Inactive)
REMARK    1  A    between atoms: O2_2  and  C6_10 
REMARK    2  A    between atoms: O4_4  and  C9_13 
REMARK    3  A    between atoms: C3_7  and  C5_9 
ROOT
ATOM      1  O1  UNK     1      43.538   1.827   7.447  1.00  0.00    -0.309 OA
ATOM      2  O3  UNK     1      43.956   4.790  10.211  1.00  0.00    -0.287 OA
ATOM      3  C1  UNK     1      44.976   3.430   8.569  1.00  0.00     0.081 A 
ATOM      4  C2  UNK     1      44.764   2.414   7.640  1.00  0.00     0.095 A 
ATOM      5  C3  UNK     1      42.469   2.261   8.214  1.00  0.00     0.090 A 
ATOM      6  C4  UNK     1      43.843   3.900   9.379  1.00  0.00     0.190 A 
ATOM      7  C6  UNK     1      46.246   3.992   8.724  1.00  0.00     0.085 A 
ATOM      8  C7  UNK     1      42.546   3.235   9.135  1.00  0.00     0.094 A 
ATOM      9  C8  UNK     1      45.822   1.951   6.858  1.00  0.00     0.075 A 
ATOM     10  C9  UNK     1      47.092   2.509   7.009  1.00  0.00     0.071 A 
ATOM     11  C10 UNK     1      47.302   3.527   7.940  1.00  0.00     0.074 A 
ENDROOT
BRANCH   5  12
ATOM     12  C5  UNK     1      41.199   1.569   7.921  1.00  0.00    -0.002 A 
ATOM     13  C12 UNK     1      41.037   0.224   8.265  1.00  0.00     0.014 A 
ATOM     14  C14 UNK     1      39.836  -0.431   7.988  1.00  0.00     0.001 A 
ATOM     15  C15 UNK     1      38.794   0.256   7.367  1.00  0.00     0.000 A 
ATOM     16  C13 UNK     1      38.952   1.599   7.022  1.00  0.00     0.001 A 
ATOM     17  C11 UNK     1      40.152   2.254   7.299  1.00  0.00     0.014 A 
ENDBRANCH   5  12
BRANCH  10  18
ATOM     18  O4  UNK     1      48.127   2.060   6.246  1.00  0.00    -0.361 OA
ATOM     19  H10 UNK     1      47.840   2.022   5.318  1.00  0.00     0.217 HD
ENDBRANCH  10  18
BRANCH   7  20
ATOM     20  O2  UNK     1      46.504   4.987   9.617  1.00  0.00    -0.360 OA
ATOM     21  H9  UNK     1      46.945   5.731   9.178  1.00  0.00     0.217 HD
ENDBRANCH   7  20
TORSDOF 3
ENDMDL
MODEL 11
REMARK VINA RESULT:      -5.7      5.629      9.176
REMARK  3 active torsions:
REMARK  status: ('A' for Active; 'I' for Inactive)
REMARK    1  A    between atoms: O2_2  and  C6_10 
REMARK    2  A    between atoms: O4_4  and  C9_13 
REMARK    3  A    between atoms: C3_7  and  C5_9 
ROOT
ATOM      1  O1  UNK     1      38.105  -3.852   6.299  1.00  0.00    -0.309 OA
ATOM      2  O3  UNK     1      35.151  -1.384   7.635  1.00  0.00    -0.287 OA
ATOM      3  C1  UNK     1      37.465  -1.850   7.517  1.00  0.00     0.081 A 
ATOM      4  C2  UNK     1      38.425  -2.735   7.029  1.00  0.00     0.095 A 
ATOM      5  C3  UNK     1      36.768  -4.113   6.043  1.00  0.00     0.090 A 
ATOM      6  C4  UNK     1      36.046  -2.119   7.240  1.00  0.00     0.190 A 
ATOM      7  C6  UNK     1      37.849  -0.728   8.254  1.00  0.00     0.085 A 
ATOM      8  C7  UNK     1      35.753  -3.334   6.453  1.00  0.00     0.094 A 
ATOM      9  C8  UNK     1      39.778  -2.502   7.275  1.00  0.00     0.075 A 
ATOM     10  C9  UNK     1      40.166  -1.382   8.012  1.00  0.00     0.071 A 
ATOM     11  C10 UNK     1      39.203  -0.497   8.500  1.00  0.00     0.074 A 
ENDROOT
BRANCH   5  12
ATOM     12  C5  UNK     1      36.536  -5.334   5.246  1.00  0.00    -0.002 A 
ATOM     13  C12 UNK     1      37.443  -5.704   4.250  1.00  0.00     0.014 A 
ATOM     14  C14 UNK     1      37.225  -6.857   3.495  1.00  0.00     0.001 A 
ATOM     15  C15 UNK     1      36.099  -7.644   3.735  1.00  0.00     0.000 A 
ATOM     16  C13 UNK     1      35.191  -7.278   4.729  1.00  0.00     0.001 A 
ATOM     17  C11 UNK     1      35.409  -6.125   5.483  1.00  0.00     0.014 A 
ENDBRANCH   5  12
BRANCH  10  18
ATOM     18  O4  UNK     1      41.486  -1.151   8.254  1.00  0.00    -0.361 OA
ATOM     19  H10 UNK     1      41.658  -0.198   8.176  1.00  0.00     0.217 HD
ENDBRANCH  10  18
BRANCH   7  20
ATOM     20  O2  UNK     1      36.950   0.166   8.752  1.00  0.00    -0.360 OA
ATOM     21  H9  UNK     1      37.181   1.067   8.481  1.00  0.00     0.217 HD
ENDBRANCH   7  20
TORSDOF 3
ENDMDL
MODEL 12
REMARK VINA RESULT:      -5.7      5.623      9.198
REMARK  3 active torsions:
REMARK  status: ('A' for Active; 'I' for Inactive)
REMARK    1  A    between atoms: O2_2  and  C6_10 
REMARK    2  A    between atoms: O4_4  and  C9_13 
REMARK    3  A    between atoms: C3_7  and  C5_9 
ROOT
ATOM      1  O1  UNK     1      38.108  -3.852   6.305  1.00  0.00    -0.309 OA
ATOM      2  O3  UNK     1      35.160  -1.390   7.662  1.00  0.00    -0.287 OA
ATOM      3  C1  UNK     1      37.473  -1.854   7.531  1.00  0.00     0.081 A 
ATOM      4  C2  UNK     1      38.431  -2.737   7.036  1.00  0.00     0.095 A 
ATOM      5  C3  UNK     1      36.770  -4.114   6.055  1.00  0.00     0.090 A 
ATOM      6  C4  UNK     1      36.053  -2.123   7.261  1.00  0.00     0.190 A 
ATOM      7  C6  UNK     1      37.860  -0.734   8.271  1.00  0.00     0.085 A 
ATOM      8  C7  UNK     1      35.758  -3.337   6.472  1.00  0.00     0.094 A 
ATOM      9  C8  UNK     1      39.785  -2.504   7.277  1.00  0.00     0.075 A 
ATOM     10  C9  UNK     1      40.176  -1.386   8.015  1.00  0.00     0.071 A 
ATOM     11  C10 UNK     1      39.215  -0.503   8.510  1.00  0.00     0.074 A 
ENDROOT
BRANCH   5  12
ATOM     12  C5  UNK     1      36.535  -5.332   5.255  1.00  0.00    -0.002 A 
ATOM     13  C12 UNK     1      35.407  -6.121   5.494  1.00  0.00     0.014 A 
ATOM     14  C14 UNK     1      35.184  -7.273   4.739  1.00  0.00     0.001 A 
ATOM     15  C15 UNK     1      36.089  -7.640   3.743  1.00  0.00     0.000 A 
ATOM     16  C13 UNK     1      37.217  -6.855   3.502  1.00  0.00     0.001 A 
ATOM     17  C11 UNK     1      37.439  -5.703   4.257  1.00  0.00     0.014 A 
ENDBRANCH   5  12
BRANCH  10  18
ATOM     18  O4  UNK     1      41.497  -1.155   8.251  1.00  0.00    -0.361 OA
ATOM     19  H10 UNK     1      41.678  -1.296   9.196  1.00  0.00     0.217 HD
ENDBRANCH  10  18
BRANCH   7  20
ATOM     20  O2  UNK     1      36.963   0.158   8.775  1.00  0.00    -0.360 OA
ATOM     21  H9  UNK     1      36.776  -0.037   9.705  1.00  0.00     0.217 HD
ENDBRANCH   7  20
TORSDOF 3
ENDMDL
MODEL 13
REMARK VINA RESULT:      -5.7      6.076      9.311
REMARK  3 active torsions:
REMARK  status: ('A' for Active; 'I' for Inactive)
REMARK    1  A    between atoms: O2_2  and  C6_10 
REMARK    2  A    between atoms: O4_4  and  C9_13 
REMARK    3  A    between atoms: C3_7  and  C5_9 
ROOT
ATOM      1  O1  UNK     1      38.521  -4.461   6.002  1.00  0.00    -0.309 OA
ATOM      2  O3  UNK     1      35.001  -2.492   6.576  1.00  0.00    -0.287 OA
ATOM      3  C1  UNK     1      37.347  -2.514   6.856  1.00  0.00     0.081 A 
ATOM      4  C2  UNK     1      38.514  -3.240   6.627  1.00  0.00     0.095 A 
ATOM      5  C3  UNK     1      37.311  -4.998   5.588  1.00  0.00     0.090 A 
ATOM      6  C4  UNK     1      36.063  -3.075   6.410  1.00  0.00     0.190 A 
ATOM      7  C6  UNK     1      37.400  -1.274   7.498  1.00  0.00     0.085 A 
ATOM      8  C7  UNK     1      36.123  -4.393   5.745  1.00  0.00     0.094 A 
ATOM      9  C8  UNK     1      39.745  -2.729   7.039  1.00  0.00     0.075 A 
ATOM     10  C9  UNK     1      39.803  -1.492   7.681  1.00  0.00     0.071 A 
ATOM     11  C10 UNK     1      38.633  -0.766   7.909  1.00  0.00     0.074 A 
ENDROOT
BRANCH   5  12
ATOM     12  C5  UNK     1      37.433  -6.310   4.922  1.00  0.00    -0.002 A 
ATOM     13  C12 UNK     1      38.198  -7.324   5.504  1.00  0.00     0.014 A 
ATOM     14  C14 UNK     1      38.314  -8.564   4.875  1.00  0.00     0.001 A 
ATOM     15  C15 UNK     1      37.664  -8.794   3.663  1.00  0.00     0.000 A 
ATOM     16  C13 UNK     1      36.899  -7.784   3.079  1.00  0.00     0.001 A 
ATOM     17  C11 UNK     1      36.783  -6.544   3.707  1.00  0.00     0.014 A 
ENDBRANCH   5  12
BRANCH  10  18
ATOM     18  O4  UNK     1      41.004  -0.990   8.083  1.00  0.00    -0.361 OA
ATOM     19  H10 UNK     1      41.284  -1.453   8.890  1.00  0.00     0.217 HD
ENDBRANCH  10  18
BRANCH   7  20
ATOM     20  O2  UNK     1      36.289  -0.527   7.744  1.00  0.00    -0.360 OA
ATOM     21  H9  UNK     1      35.966  -0.684   8.645  1.00  0.00     0.217 HD
ENDBRANCH   7  20
TORSDOF 3
ENDMDL
MODEL 14
REMARK VINA RESULT:      -5.7      1.382      3.456
REMARK  3 active torsions:
REMARK  status: ('A' for Active; 'I' for Inactive)
REMARK    1  A    between atoms: O2_2  and  C6_10 
REMARK    2  A    between atoms: O4_4  and  C9_13 
REMARK    3  A    between atoms: C3_7  and  C5_9 
ROOT
ATOM      1  O1  UNK     1      41.629   0.396   8.237  1.00  0.00    -0.309 OA
ATOM      2  O3  UNK     1      41.490  -2.744  10.830  1.00  0.00    -0.287 OA
ATOM      3  C1  UNK     1      40.315  -1.306   9.367  1.00  0.00     0.081 A 
ATOM      4  C2  UNK     1      40.433  -0.229   8.492  1.00  0.00     0.095 A 
ATOM      5  C3  UNK     1      42.765  -0.062   8.886  1.00  0.00     0.090 A 
ATOM      6  C4  UNK     1      41.519  -1.801  10.051  1.00  0.00     0.190 A 
ATOM      7  C6  UNK     1      39.072  -1.904   9.589  1.00  0.00     0.085 A 
ATOM      8  C7  UNK     1      42.780  -1.094   9.745  1.00  0.00     0.094 A 
ATOM      9  C8  UNK     1      39.307   0.259   7.829  1.00  0.00     0.075 A 
ATOM     10  C9  UNK     1      38.063  -0.335   8.047  1.00  0.00     0.071 A 
ATOM     11  C10 UNK     1      37.947  -1.415   8.925  1.00  0.00     0.074 A 
ENDROOT
BRANCH   5  12
ATOM     12  C5  UNK     1      43.995   0.674   8.535  1.00  0.00    -0.002 A 
ATOM     13  C12 UNK     1      45.108   0.623   9.379  1.00  0.00     0.014 A 
ATOM     14  C14 UNK     1      46.271   1.320   9.048  1.00  0.00     0.001 A 
ATOM     15  C15 UNK     1      46.325   2.069   7.873  1.00  0.00     0.000 A 
ATOM     16  C13 UNK     1      45.215   2.123   7.029  1.00  0.00     0.001 A 
ATOM     17  C11 UNK     1      44.053   1.426   7.359  1.00  0.00     0.014 A 
ENDBRANCH   5  12
BRANCH  10  18
ATOM     18  O4  UNK     1      36.961   0.138   7.401  1.00  0.00    -0.361 OA
ATOM     19  H10 UNK     1      37.031  -0.083   6.457  1.00  0.00     0.217 HD
ENDBRANCH  10  18
BRANCH   7  20
ATOM     20  O2  UNK     1      38.905  -2.959  10.434  1.00  0.00    -0.360 OA
ATOM     21  H9  UNK     1      38.034  -3.363  10.304  1.00  0.00     0.217 HD
ENDBRANCH   7  20
TORSDOF 3
ENDMDL
MODEL 15
REMARK VINA RESULT:      -5.5      2.877      4.272
REMARK  3 active torsions:
REMARK  status: ('A' for Active; 'I' for Inactive)
REMARK    1  A    between atoms: O2_2  and  C6_10 
REMARK    2  A    between atoms: O4_4  and  C9_13 
REMARK    3  A    between atoms: C3_7  and  C5_9 
ROOT
ATOM      1  O1  UNK     1      41.261   2.990   8.664  1.00  0.00    -0.309 OA
ATOM      2  O3  UNK     1      43.273  -0.495   9.302  1.00  0.00    -0.287 OA
ATOM      3  C1  UNK     1      41.289   0.563   8.574  1.00  0.00     0.081 A 
ATOM      4  C2  UNK     1      40.659   1.791   8.379  1.00  0.00     0.095 A 
ATOM      5  C3  UNK     1      42.549   2.978   9.176  1.00  0.00     0.090 A 
ATOM      6  C4  UNK     1      42.659   0.545   9.108  1.00  0.00     0.190 A 
ATOM      7  C6  UNK     1      40.628  -0.628   8.265  1.00  0.00     0.085 A 
ATOM      8  C7  UNK     1      43.262   1.862   9.402  1.00  0.00     0.094 A 
ATOM      9  C8  UNK     1      39.360   1.835   7.871  1.00  0.00     0.075 A 
ATOM     10  C9  UNK     1      38.695   0.648   7.562  1.00  0.00     0.071 A 
ATOM     11  C10 UNK     1      39.329  -0.580   7.758  1.00  0.00     0.074 A 
ENDROOT
BRANCH   5  12
ATOM     12  C5  UNK     1      43.103   4.320   9.442  1.00  0.00    -0.002 A 
ATOM     13  C12 UNK     1      44.410   4.628   9.054  1.00  0.00     0.014 A 
ATOM     14  C14 UNK     1      44.935   5.896   9.305  1.00  0.00     0.001 A 
ATOM     15  C15 UNK     1      44.155   6.860   9.943  1.00  0.00     0.000 A 
ATOM     16  C13 UNK     1      42.849   6.556  10.331  1.00  0.00     0.001 A 
ATOM     17  C11 UNK     1      42.325   5.288  10.080  1.00  0.00     0.014 A 
ENDBRANCH   5  12
BRANCH  10  18
ATOM     18  O4  UNK     1      37.428   0.688   7.065  1.00  0.00    -0.361 OA
ATOM     19  H10 UNK     1      36.812   0.371   7.748  1.00  0.00     0.217 HD
ENDBRANCH  10  18
BRANCH   7  20
ATOM     20  O2  UNK     1      41.200  -1.851   8.437  1.00  0.00    -0.360 OA
ATOM     21  H9  UNK     1      41.302  -2.049   9.380  1.00  0.00     0.217 HD
ENDBRANCH   7  20
TORSDOF 3
ENDMDL
MODEL 16
REMARK VINA RESULT:      -5.5      2.419      6.358
REMARK  3 active torsions:
REMARK  status: ('A' for Active; 'I' for Inactive)
REMARK    1  A    between atoms: O2_2  and  C6_10 
REMARK    2  A    between atoms: O4_4  and  C9_13 
REMARK    3  A    between atoms: C3_7  and  C5_9 
ROOT
ATOM      1  O1  UNK     1      45.273   0.237   9.949  1.00  0.00    -0.309 OA
ATOM      2  O3  UNK     1      44.527   2.197   6.456  1.00  0.00    -0.287 OA
ATOM      3  C1  UNK     1      46.111   1.555   8.089  1.00  0.00     0.081 A 
ATOM      4  C2  UNK     1      46.296   0.867   9.286  1.00  0.00     0.095 A 
ATOM      5  C3  UNK     1      43.999   0.296   9.406  1.00  0.00     0.090 A 
ATOM      6  C4  UNK     1      44.762   1.613   7.505  1.00  0.00     0.190 A 
ATOM      7  C6  UNK     1      47.189   2.178   7.457  1.00  0.00     0.085 A 
ATOM      8  C7  UNK     1      43.695   0.922   8.258  1.00  0.00     0.094 A 
ATOM      9  C8  UNK     1      47.566   0.795   9.860  1.00  0.00     0.075 A 
ATOM     10  C9  UNK     1      48.646   1.416   9.232  1.00  0.00     0.071 A 
ATOM     11  C10 UNK     1      48.458   2.105   8.033  1.00  0.00     0.074 A 
ENDROOT
BRANCH   5  12
ATOM     12  C5  UNK     1      42.976  -0.418  10.195  1.00  0.00    -0.002 A 
ATOM     13  C12 UNK     1      42.498   0.133  11.387  1.00  0.00     0.014 A 
ATOM     14  C14 UNK     1      41.531  -0.543  12.133  1.00  0.00     0.001 A 
ATOM     15  C15 UNK     1      41.040  -1.770  11.690  1.00  0.00     0.000 A 
ATOM     16  C13 UNK     1      41.516  -2.324  10.501  1.00  0.00     0.001 A 
ATOM     17  C11 UNK     1      42.481  -1.649   9.755  1.00  0.00     0.014 A 
ENDBRANCH   5  12
BRANCH  10  18
ATOM     18  O4  UNK     1      49.887   1.347   9.790  1.00  0.00    -0.361 OA
ATOM     19  H10 UNK     1      50.339   0.554   9.456  1.00  0.00     0.217 HD
ENDBRANCH  10  18
BRANCH   7  20
ATOM     20  O2  UNK     1      47.059   2.862   6.286  1.00  0.00    -0.360 OA
ATOM     21  H9  UNK     1      46.562   2.338   5.640  1.00  0.00     0.217 HD
ENDBRANCH   7  20
TORSDOF 3
ENDMDL
MODEL 17
REMARK VINA RESULT:      -5.5      1.819      3.029
REMARK  3 active torsions:
REMARK  status: ('A' for Active; 'I' for Inactive)
REMARK    1  A    between atoms: O2_2  and  C6_10 
REMARK    2  A    between atoms: O4_4  and  C9_13 
REMARK    3  A    between atoms: C3_7  and  C5_9 
ROOT
ATOM      1  O1  UNK     1      43.746   2.252   8.993  1.00  0.00    -0.309 OA
ATOM      2  O3  UNK     1      42.608  -1.523  10.018  1.00  0.00    -0.287 OA
ATOM      3  C1  UNK     1      42.026   0.760   9.838  1.00  0.00     0.081 A 
ATOM      4  C2  UNK     1      42.479   2.025   9.469  1.00  0.00     0.095 A 
ATOM      5  C3  UNK     1      44.614   1.176   8.883  1.00  0.00     0.090 A 
ATOM      6  C4  UNK     1      42.940  -0.385   9.715  1.00  0.00     0.190 A 
ATOM      7  C6  UNK     1      40.725   0.587  10.317  1.00  0.00     0.085 A 
ATOM      8  C7  UNK     1      44.293  -0.089   9.201  1.00  0.00     0.094 A 
ATOM      9  C8  UNK     1      41.632   3.128   9.574  1.00  0.00     0.075 A 
ATOM     10  C9  UNK     1      40.332   2.960  10.052  1.00  0.00     0.071 A 
ATOM     11  C10 UNK     1      39.880   1.692  10.421  1.00  0.00     0.074 A 
ENDROOT
BRANCH   5  12
ATOM     12  C5  UNK     1      45.946   1.530   8.356  1.00  0.00    -0.002 A 
ATOM     13  C12 UNK     1      46.060   2.361   7.238  1.00  0.00     0.014 A 
ATOM     14  C14 UNK     1      47.319   2.695   6.738  1.00  0.00     0.001 A 
ATOM     15  C15 UNK     1      48.468   2.201   7.356  1.00  0.00     0.000 A 
ATOM     16  C13 UNK     1      48.358   1.371   8.472  1.00  0.00     0.001 A 
ATOM     17  C11 UNK     1      47.100   1.037   8.971  1.00  0.00     0.014 A 
ENDBRANCH   5  12
BRANCH  10  18
ATOM     18  O4  UNK     1      39.502   4.035  10.155  1.00  0.00    -0.361 OA
ATOM     19  H10 UNK     1      39.807   4.728   9.546  1.00  0.00     0.217 HD
ENDBRANCH  10  18
BRANCH   7  20
ATOM     20  O2  UNK     1      40.235  -0.627  10.690  1.00  0.00    -0.360 OA
ATOM     21  H9  UNK     1      40.864  -1.084  11.269  1.00  0.00     0.217 HD
ENDBRANCH   7  20
TORSDOF 3
ENDMDL
MODEL 18
REMARK VINA RESULT:      -5.5      6.825     10.119
REMARK  3 active torsions:
REMARK  status: ('A' for Active; 'I' for Inactive)
REMARK    1  A    between atoms: O2_2  and  C6_10 
REMARK    2  A    between atoms: O4_4  and  C9_13 
REMARK    3  A    between atoms: C3_7  and  C5_9 
ROOT
ATOM      1  O1  UNK     1      38.138  -5.367   5.459  1.00  0.00    -0.309 OA
ATOM      2  O3  UNK     1      37.062  -6.434   9.241  1.00  0.00    -0.287 OA
ATOM      3  C1  UNK     1      37.755  -4.720   7.769  1.00  0.00     0.081 A 
ATOM      4  C2  UNK     1      38.112  -4.423   6.455  1.00  0.00     0.095 A 
ATOM      5  C3  UNK     1      37.801  -6.674   5.778  1.00  0.00     0.090 A 
ATOM      6  C4  UNK     1      37.388  -6.103   8.109  1.00  0.00     0.190 A 
ATOM      7  C6  UNK     1      37.746  -3.718   8.742  1.00  0.00     0.085 A 
ATOM      8  C7  UNK     1      37.435  -7.082   7.004  1.00  0.00     0.094 A 
ATOM      9  C8  UNK     1      38.462  -3.119   6.105  1.00  0.00     0.075 A 
ATOM     10  C9  UNK     1      38.455  -2.115   7.074  1.00  0.00     0.071 A 
ATOM     11  C10 UNK     1      38.096  -2.415   8.389  1.00  0.00     0.074 A 
ENDROOT
BRANCH   5  12
ATOM     12  C5  UNK     1      37.856  -7.605   4.634  1.00  0.00    -0.002 A 
ATOM     13  C12 UNK     1      39.000  -8.376   4.411  1.00  0.00     0.014 A 
ATOM     14  C14 UNK     1      39.053  -9.256   3.329  1.00  0.00     0.001 A 
ATOM     15  C15 UNK     1      37.962  -9.368   2.468  1.00  0.00     0.000 A 
ATOM     16  C13 UNK     1      36.818  -8.600   2.688  1.00  0.00     0.001 A 
ATOM     17  C11 UNK     1      36.765  -7.720   3.769  1.00  0.00     0.014 A 
ENDBRANCH   5  12
BRANCH  10  18
ATOM     18  O4  UNK     1      38.795  -0.841   6.735  1.00  0.00    -0.361 OA
ATOM     19  H10 UNK     1      39.016  -0.348   7.543  1.00  0.00     0.217 HD
ENDBRANCH  10  18
BRANCH   7  20
ATOM     20  O2  UNK     1      37.404  -3.958  10.038  1.00  0.00    -0.360 OA
ATOM     21  H9  UNK     1      37.701  -3.232  10.608  1.00  0.00     0.217 HD
ENDBRANCH   7  20
TORSDOF 3
ENDMDL
MODEL 19
REMARK VINA RESULT:      -5.4      2.339      6.214
REMARK  3 active torsions:
REMARK  status: ('A' for Active; 'I' for Inactive)
REMARK    1  A    between atoms: O2_2  and  C6_10 
REMARK    2  A    between atoms: O4_4  and  C9_13 
REMARK    3  A    between atoms: C3_7  and  C5_9 
ROOT
ATOM      1  O1  UNK     1      44.392   0.971   9.288  1.00  0.00    -0.309 OA
ATOM      2  O3  UNK     1      46.715   2.678   6.409  1.00  0.00    -0.287 OA
ATOM      3  C1  UNK     1      46.597   1.662   8.539  1.00  0.00     0.081 A 
ATOM      4  C2  UNK     1      45.745   1.088   9.481  1.00  0.00     0.095 A 
ATOM      5  C3  UNK     1      43.849   1.452   8.106  1.00  0.00     0.090 A 
ATOM      6  C4  UNK     1      46.027   2.165   7.280  1.00  0.00     0.190 A 
ATOM      7  C6  UNK     1      47.968   1.755   8.789  1.00  0.00     0.085 A 
ATOM      8  C7  UNK     1      44.565   2.018   7.121  1.00  0.00     0.094 A 
ATOM      9  C8  UNK     1      46.261   0.601  10.683  1.00  0.00     0.075 A 
ATOM     10  C9  UNK     1      47.630   0.693  10.937  1.00  0.00     0.071 A 
ATOM     11  C10 UNK     1      48.481   1.268   9.992  1.00  0.00     0.074 A 
ENDROOT
BRANCH   5  12
ATOM     12  C5  UNK     1      42.389   1.270   7.998  1.00  0.00    -0.002 A 
ATOM     13  C12 UNK     1      41.794   0.086   8.445  1.00  0.00     0.014 A 
ATOM     14  C14 UNK     1      40.413  -0.087   8.343  1.00  0.00     0.001 A 
ATOM     15  C15 UNK     1      39.623   0.923   7.795  1.00  0.00     0.000 A 
ATOM     16  C13 UNK     1      40.213   2.106   7.348  1.00  0.00     0.001 A 
ATOM     17  C11 UNK     1      41.593   2.279   7.450  1.00  0.00     0.014 A 
ENDBRANCH   5  12
BRANCH  10  18
ATOM     18  O4  UNK     1      48.137   0.217  12.108  1.00  0.00    -0.361 OA
ATOM     19  H10 UNK     1      47.789  -0.677  12.262  1.00  0.00     0.217 HD
ENDBRANCH  10  18
BRANCH   7  20
ATOM     20  O2  UNK     1      48.841   2.306   7.901  1.00  0.00    -0.360 OA
ATOM     21  H9  UNK     1      48.590   3.221   7.702  1.00  0.00     0.217 HD
ENDBRANCH   7  20
TORSDOF 3
ENDMDL
MODEL 20
REMARK VINA RESULT:      -5.4      3.545      5.470
REMARK  3 active torsions:
REMARK  status: ('A' for Active; 'I' for Inactive)
REMARK    1  A    between atoms: O2_2  and  C6_10 
REMARK    2  A    between atoms: O4_4  and  C9_13 
REMARK    3  A    between atoms: C3_7  and  C5_9 
ROOT
ATOM      1  O1  UNK     1      39.512  -0.358   7.763  1.00  0.00    -0.309 OA
ATOM      2  O3  UNK     1      35.656  -0.058   9.044  1.00  0.00    -0.287 OA
ATOM      3  C1  UNK     1      37.272  -1.293   7.840  1.00  0.00     0.081 A 
ATOM      4  C2  UNK     1      38.605  -1.334   7.436  1.00  0.00     0.095 A 
ATOM      5  C3  UNK     1      39.080   0.719   8.522  1.00  0.00     0.090 A 
ATOM      6  C4  UNK     1      36.811  -0.158   8.653  1.00  0.00     0.190 A 
ATOM      7  C6  UNK     1      36.392  -2.316   7.478  1.00  0.00     0.085 A 
ATOM      8  C7  UNK     1      37.824   0.868   8.975  1.00  0.00     0.094 A 
ATOM      9  C8  UNK     1      39.068  -2.401   6.667  1.00  0.00     0.075 A 
ATOM     10  C9  UNK     1      38.192  -3.425   6.303  1.00  0.00     0.071 A 
ATOM     11  C10 UNK     1      36.858  -3.382   6.708  1.00  0.00     0.074 A 
ENDROOT
BRANCH   5  12
ATOM     12  C5  UNK     1      40.136   1.706   8.821  1.00  0.00    -0.002 A 
ATOM     13  C12 UNK     1      39.814   2.904   9.464  1.00  0.00     0.014 A 
ATOM     14  C14 UNK     1      40.812   3.837   9.747  1.00  0.00     0.001 A 
ATOM     15  C15 UNK     1      42.134   3.576   9.388  1.00  0.00     0.000 A 
ATOM     16  C13 UNK     1      42.458   2.381   8.746  1.00  0.00     0.001 A 
ATOM     17  C11 UNK     1      41.461   1.447   8.463  1.00  0.00     0.014 A 
ENDBRANCH   5  12
BRANCH  10  18
ATOM     18  O4  UNK     1      38.642  -4.469   5.552  1.00  0.00    -0.361 OA
ATOM     19  H10 UNK     1      38.853  -5.213   6.142  1.00  0.00     0.217 HD
ENDBRANCH  10  18
BRANCH   7  20
ATOM     20  O2  UNK     1      35.081  -2.322   7.848  1.00  0.00    -0.360 OA
ATOM     21  H9  UNK     1      34.540  -2.760   7.174  1.00  0.00     0.217 HD
ENDBRANCH   7  20
TORSDOF 3
ENDMDL
