MODEL 1
REMARK VINA RESULT:      -8.2      0.000      0.000
REMARK  3 active torsions:
REMARK  status: ('A' for Active; 'I' for Inactive)
REMARK    1  A    between atoms: O2_2  and  C6_10 
REMARK    2  A    between atoms: O4_4  and  C9_13 
REMARK    3  A    between atoms: C3_7  and  C5_9 
ROOT
ATOM      1  O1  UNK     1      40.222  14.470  -0.008  1.00  0.00    -0.309 OA
ATOM      2  O3  UNK     1      41.887  11.550  -2.310  1.00  0.00    -0.287 OA
ATOM      3  C1  UNK     1      40.988  12.175  -0.215  1.00  0.00     0.081 A 
ATOM      4  C2  UNK     1      40.423  13.218   0.516  1.00  0.00     0.095 A 
ATOM      5  C3  UNK     1      40.605  14.708  -1.318  1.00  0.00     0.090 A 
ATOM      6  C4  UNK     1      41.387  12.420  -1.609  1.00  0.00     0.190 A 
ATOM      7  C6  UNK     1      41.169  10.919   0.369  1.00  0.00     0.085 A 
ATOM      8  C7  UNK     1      41.153  13.784  -2.125  1.00  0.00     0.094 A 
ATOM      9  C8  UNK     1      40.033  13.011   1.839  1.00  0.00     0.075 A 
ATOM     10  C9  UNK     1      40.212  11.758   2.427  1.00  0.00     0.071 A 
ATOM     11  C10 UNK     1      40.778  10.715   1.693  1.00  0.00     0.074 A 
ENDROOT
BRANCH   5  12
ATOM     12  C5  UNK     1      40.339  16.084  -1.782  1.00  0.00    -0.002 A 
ATOM     13  C12 UNK     1      40.652  16.455  -3.093  1.00  0.00     0.014 A 
ATOM     14  C14 UNK     1      40.401  17.755  -3.532  1.00  0.00     0.001 A 
ATOM     15  C15 UNK     1      39.835  18.688  -2.662  1.00  0.00     0.000 A 
ATOM     16  C13 UNK     1      39.522  18.321  -1.353  1.00  0.00     0.001 A 
ATOM     17  C11 UNK     1      39.773  17.021  -0.915  1.00  0.00     0.014 A 
ENDBRANCH   5  12
BRANCH  10  18
ATOM     18  O4  UNK     1      39.832  11.553   3.719  1.00  0.00    -0.361 OA
ATOM     19  H10 UNK     1      39.148  10.862   3.740  1.00  0.00     0.217 HD
ENDBRANCH  10  18
BRANCH   7  20
ATOM     20  O2  UNK     1      41.715   9.868  -0.303  1.00  0.00    -0.360 OA
ATOM     21  H9  UNK     1      42.137  10.171  -1.121  1.00  0.00     0.217 HD
ENDBRANCH   7  20
TORSDOF 3
ENDMDL
MODEL 2
REMARK VINA RESULT:      -7.9      2.432      6.383
REMARK  3 active torsions:
REMARK  status: ('A' for Active; 'I' for Inactive)
REMARK    1  A    between atoms: O2_2  and  C6_10 
REMARK    2  A    between atoms: O4_4  and  C9_13 
REMARK    3  A    between atoms: C3_7  and  C5_9 
ROOT
ATOM      1  O1  UNK     1      39.750  15.636  -0.273  1.00  0.00    -0.309 OA
ATOM      2  O3  UNK     1      40.970  17.257  -3.806  1.00  0.00    -0.287 OA
ATOM      3  C1  UNK     1      39.878  17.572  -1.734  1.00  0.00     0.081 A 
ATOM      4  C2  UNK     1      39.490  16.955  -0.547  1.00  0.00     0.095 A 
ATOM      5  C3  UNK     1      40.421  14.884  -1.225  1.00  0.00     0.090 A 
ATOM      6  C4  UNK     1      40.598  16.781  -2.743  1.00  0.00     0.190 A 
ATOM      7  C6  UNK     1      39.586  18.920  -1.959  1.00  0.00     0.085 A 
ATOM      8  C7  UNK     1      40.851  15.365  -2.403  1.00  0.00     0.094 A 
ATOM      9  C8  UNK     1      38.807  17.684   0.427  1.00  0.00     0.075 A 
ATOM     10  C9  UNK     1      38.514  19.030   0.207  1.00  0.00     0.071 A 
ATOM     11  C10 UNK     1      38.903  19.646  -0.983  1.00  0.00     0.074 A 
ENDROOT
BRANCH   5  12
ATOM     12  C5  UNK     1      40.654  13.482  -0.828  1.00  0.00    -0.002 A 
ATOM     13  C12 UNK     1      40.114  12.991   0.364  1.00  0.00     0.014 A 
ATOM     14  C14 UNK     1      40.335  11.666   0.740  1.00  0.00     0.001 A 
ATOM     15  C15 UNK     1      41.095  10.826  -0.074  1.00  0.00     0.000 A 
ATOM     16  C13 UNK     1      41.635  11.313  -1.265  1.00  0.00     0.001 A 
ATOM     17  C11 UNK     1      41.415  12.637  -1.642  1.00  0.00     0.014 A 
ENDBRANCH   5  12
BRANCH  10  18
ATOM     18  O4  UNK     1      37.849  19.745   1.157  1.00  0.00    -0.361 OA
ATOM     19  H10 UNK     1      36.895  19.702   0.972  1.00  0.00     0.217 HD
ENDBRANCH  10  18
BRANCH   7  20
ATOM     20  O2  UNK     1      39.944  19.567  -3.102  1.00  0.00    -0.360 OA
ATOM     21  H9  UNK     1      39.254  20.194  -3.368  1.00  0.00     0.217 HD
ENDBRANCH   7  20
TORSDOF 3
ENDMDL
MODEL 3
REMARK VINA RESULT:      -7.8      2.432      6.288
REMARK  3 active torsions:
REMARK  status: ('A' for Active; 'I' for Inactive)
REMARK    1  A    between atoms: O2_2  and  C6_10 
REMARK    2  A    between atoms: O4_4  and  C9_13 
REMARK    3  A    between atoms: C3_7  and  C5_9 
ROOT
ATOM      1  O1  UNK     1      39.742  15.638  -0.253  1.00  0.00    -0.309 OA
ATOM      2  O3  UNK     1      40.958  17.249  -3.792  1.00  0.00    -0.287 OA
ATOM      3  C1  UNK     1      39.870  17.570  -1.718  1.00  0.00     0.081 A 
ATOM      4  C2  UNK     1      39.484  16.957  -0.528  1.00  0.00     0.095 A 
ATOM      5  C3  UNK     1      40.409  14.883  -1.204  1.00  0.00     0.090 A 
ATOM      6  C4  UNK     1      40.587  16.775  -2.726  1.00  0.00     0.190 A 
ATOM      7  C6  UNK     1      39.581  18.918  -1.945  1.00  0.00     0.085 A 
ATOM      8  C7  UNK     1      40.838  15.360  -2.384  1.00  0.00     0.094 A 
ATOM      9  C8  UNK     1      38.805  17.690   0.446  1.00  0.00     0.075 A 
ATOM     10  C9  UNK     1      38.513  19.036   0.223  1.00  0.00     0.071 A 
ATOM     11  C10 UNK     1      38.901  19.648  -0.970  1.00  0.00     0.074 A 
ENDROOT
BRANCH   5  12
ATOM     12  C5  UNK     1      40.641  13.481  -0.804  1.00  0.00    -0.002 A 
ATOM     13  C12 UNK     1      41.394  12.633  -1.621  1.00  0.00     0.014 A 
ATOM     14  C14 UNK     1      41.613  11.308  -1.244  1.00  0.00     0.001 A 
ATOM     15  C15 UNK     1      41.079  10.826  -0.049  1.00  0.00     0.000 A 
ATOM     16  C13 UNK     1      40.327  11.669   0.769  1.00  0.00     0.001 A 
ATOM     17  C11 UNK     1      40.108  12.994   0.392  1.00  0.00     0.014 A 
ENDBRANCH   5  12
BRANCH  10  18
ATOM     18  O4  UNK     1      37.851  19.754   1.172  1.00  0.00    -0.361 OA
ATOM     19  H10 UNK     1      37.271  19.156   1.672  1.00  0.00     0.217 HD
ENDBRANCH  10  18
BRANCH   7  20
ATOM     20  O2  UNK     1      39.938  19.563  -3.091  1.00  0.00    -0.360 OA
ATOM     21  H9  UNK     1      40.108  20.500  -2.914  1.00  0.00     0.217 HD
ENDBRANCH   7  20
TORSDOF 3
ENDMDL
MODEL 4
REMARK VINA RESULT:      -7.6      2.621      4.344
REMARK  3 active torsions:
REMARK  status: ('A' for Active; 'I' for Inactive)
REMARK    1  A    between atoms: O2_2  and  C6_10 
REMARK    2  A    between atoms: O4_4  and  C9_13 
REMARK    3  A    between atoms: C3_7  and  C5_9 
ROOT
ATOM      1  O1  UNK     1      40.342  16.999  -1.149  1.00  0.00    -0.309 OA
ATOM      2  O3  UNK     1      36.871  14.918  -0.676  1.00  0.00    -0.287 OA
ATOM      3  C1  UNK     1      39.188  14.862  -1.139  1.00  0.00     0.081 A 
ATOM      4  C2  UNK     1      40.339  15.633  -1.286  1.00  0.00     0.095 A 
ATOM      5  C3  UNK     1      39.146  17.636  -0.859  1.00  0.00     0.090 A 
ATOM      6  C4  UNK     1      37.919  15.533  -0.822  1.00  0.00     0.190 A 
ATOM      7  C6  UNK     1      39.243  13.474  -1.290  1.00  0.00     0.085 A 
ATOM      8  C7  UNK     1      37.974  17.003  -0.687  1.00  0.00     0.094 A 
ATOM      9  C8  UNK     1      41.556  15.021  -1.585  1.00  0.00     0.075 A 
ATOM     10  C9  UNK     1      41.616  13.635  -1.737  1.00  0.00     0.071 A 
ATOM     11  C10 UNK     1      40.462  12.864  -1.589  1.00  0.00     0.074 A 
ENDROOT
BRANCH   5  12
ATOM     12  C5  UNK     1      39.263  19.102  -0.726  1.00  0.00    -0.002 A 
ATOM     13  C12 UNK     1      38.649  19.761   0.342  1.00  0.00     0.014 A 
ATOM     14  C14 UNK     1      38.759  21.146   0.468  1.00  0.00     0.001 A 
ATOM     15  C15 UNK     1      39.484  21.877  -0.474  1.00  0.00     0.000 A 
ATOM     16  C13 UNK     1      40.098  21.222  -1.542  1.00  0.00     0.001 A 
ATOM     17  C11 UNK     1      39.988  19.837  -1.667  1.00  0.00     0.014 A 
ENDBRANCH   5  12
BRANCH  10  18
ATOM     18  O4  UNK     1      42.803  13.034  -2.028  1.00  0.00    -0.361 OA
ATOM     19  H10 UNK     1      43.418  13.177  -1.289  1.00  0.00     0.217 HD
ENDBRANCH  10  18
BRANCH   7  20
ATOM     20  O2  UNK     1      38.147  12.677  -1.155  1.00  0.00    -0.360 OA
ATOM     21  H9  UNK     1      38.370  11.875  -0.658  1.00  0.00     0.217 HD
ENDBRANCH   7  20
TORSDOF 3
ENDMDL
MODEL 5
REMARK VINA RESULT:      -7.2      2.420      7.001
REMARK  3 active torsions:
REMARK  status: ('A' for Active; 'I' for Inactive)
REMARK    1  A    between atoms: O2_2  and  C6_10 
REMARK    2  A    between atoms: O4_4  and  C9_13 
REMARK    3  A    between atoms: C3_7  and  C5_9 
ROOT
ATOM      1  O1  UNK     1      40.739  15.127  -2.132  1.00  0.00    -0.309 OA
ATOM      2  O3  UNK     1      38.943  17.824   0.338  1.00  0.00    -0.287 OA
ATOM      3  C1  UNK     1      39.926  17.387  -1.766  1.00  0.00     0.081 A 
ATOM      4  C2  UNK     1      40.533  16.415  -2.560  1.00  0.00     0.095 A 
ATOM      5  C3  UNK     1      40.332  14.783  -0.853  1.00  0.00     0.090 A 
ATOM      6  C4  UNK     1      39.485  17.023  -0.412  1.00  0.00     0.190 A 
ATOM      7  C6  UNK     1      39.742  18.683  -2.253  1.00  0.00     0.085 A 
ATOM      8  C7  UNK     1      39.732  15.626   0.002  1.00  0.00     0.094 A 
ATOM      9  C8  UNK     1      40.959  16.733  -3.849  1.00  0.00     0.075 A 
ATOM     10  C9  UNK     1      40.777  18.027  -4.340  1.00  0.00     0.071 A 
ATOM     11  C10 UNK     1      40.169  18.999  -3.544  1.00  0.00     0.074 A 
ENDROOT
BRANCH   5  12
ATOM     12  C5  UNK     1      40.595  13.374  -0.498  1.00  0.00    -0.002 A 
ATOM     13  C12 UNK     1      40.204  12.880   0.750  1.00  0.00     0.014 A 
ATOM     14  C14 UNK     1      40.452  11.549   1.086  1.00  0.00     0.001 A 
ATOM     15  C15 UNK     1      41.093  10.708   0.177  1.00  0.00     0.000 A 
ATOM     16  C13 UNK     1      41.485  11.198  -1.069  1.00  0.00     0.001 A 
ATOM     17  C11 UNK     1      41.236  12.528  -1.406  1.00  0.00     0.014 A 
ENDBRANCH   5  12
BRANCH  10  18
ATOM     18  O4  UNK     1      41.191  18.341  -5.599  1.00  0.00    -0.361 OA
ATOM     19  H10 UNK     1      41.437  19.281  -5.624  1.00  0.00     0.217 HD
ENDBRANCH  10  18
BRANCH   7  20
ATOM     20  O2  UNK     1      39.154  19.667  -1.518  1.00  0.00    -0.360 OA
ATOM     21  H9  UNK     1      38.591  20.220  -2.080  1.00  0.00     0.217 HD
ENDBRANCH   7  20
TORSDOF 3
ENDMDL
MODEL 6
REMARK VINA RESULT:      -6.7      1.666      2.545
REMARK  3 active torsions:
REMARK  status: ('A' for Active; 'I' for Inactive)
REMARK    1  A    between atoms: O2_2  and  C6_10 
REMARK    2  A    between atoms: O4_4  and  C9_13 
REMARK    3  A    between atoms: C3_7  and  C5_9 
ROOT
ATOM      1  O1  UNK     1      39.438  15.306  -0.125  1.00  0.00    -0.309 OA
ATOM      2  O3  UNK     1      42.461  14.760  -2.801  1.00  0.00    -0.287 OA
ATOM      3  C1  UNK     1      40.981  13.793  -1.233  1.00  0.00     0.081 A 
ATOM      4  C2  UNK     1      39.948  14.050  -0.334  1.00  0.00     0.095 A 
ATOM      5  C3  UNK     1      39.981  16.366  -0.835  1.00  0.00     0.090 A 
ATOM      6  C4  UNK     1      41.554  14.913  -1.994  1.00  0.00     0.190 A 
ATOM      7  C6  UNK     1      41.462  12.493  -1.405  1.00  0.00     0.085 A 
ATOM      8  C7  UNK     1      40.973  16.245  -1.732  1.00  0.00     0.094 A 
ATOM      9  C8  UNK     1      39.385  13.005   0.399  1.00  0.00     0.075 A 
ATOM     10  C9  UNK     1      39.862  11.704   0.231  1.00  0.00     0.071 A 
ATOM     11  C10 UNK     1      40.897  11.449  -0.670  1.00  0.00     0.074 A 
ENDROOT
BRANCH   5  12
ATOM     12  C5  UNK     1      39.356  17.670  -0.540  1.00  0.00    -0.002 A 
ATOM     13  C12 UNK     1      39.567  18.758  -1.391  1.00  0.00     0.014 A 
ATOM     14  C14 UNK     1      38.976  19.991  -1.113  1.00  0.00     0.001 A 
ATOM     15  C15 UNK     1      38.173  20.140   0.017  1.00  0.00     0.000 A 
ATOM     16  C13 UNK     1      37.960  19.056   0.869  1.00  0.00     0.001 A 
ATOM     17  C11 UNK     1      38.550  17.824   0.591  1.00  0.00     0.014 A 
ENDBRANCH   5  12
BRANCH  10  18
ATOM     18  O4  UNK     1      39.315  10.682   0.944  1.00  0.00    -0.361 OA
ATOM     19  H10 UNK     1      39.768   9.855   0.709  1.00  0.00     0.217 HD
ENDBRANCH  10  18
BRANCH   7  20
ATOM     20  O2  UNK     1      42.469  12.190  -2.271  1.00  0.00    -0.360 OA
ATOM     21  H9  UNK     1      42.630  12.930  -2.876  1.00  0.00     0.217 HD
ENDBRANCH   7  20
TORSDOF 3
ENDMDL
MODEL 7
REMARK VINA RESULT:      -6.5      3.317      5.658
REMARK  3 active torsions:
REMARK  status: ('A' for Active; 'I' for Inactive)
REMARK    1  A    between atoms: O2_2  and  C6_10 
REMARK    2  A    between atoms: O4_4  and  C9_13 
REMARK    3  A    between atoms: C3_7  and  C5_9 
ROOT
ATOM      1  O1  UNK     1      39.511  18.717  -0.706  1.00  0.00    -0.309 OA
ATOM      2  O3  UNK     1      40.729  18.338  -4.576  1.00  0.00    -0.287 OA
ATOM      3  C1  UNK     1      39.931  17.280  -2.619  1.00  0.00     0.081 A 
ATOM      4  C2  UNK     1      39.525  17.480  -1.301  1.00  0.00     0.095 A 
ATOM      5  C3  UNK     1      39.927  19.811  -1.448  1.00  0.00     0.090 A 
ATOM      6  C4  UNK     1      40.363  18.439  -3.413  1.00  0.00     0.190 A 
ATOM      7  C6  UNK     1      39.924  15.998  -3.173  1.00  0.00     0.085 A 
ATOM      8  C7  UNK     1      40.333  19.748  -2.727  1.00  0.00     0.094 A 
ATOM      9  C8  UNK     1      39.109  16.397  -0.527  1.00  0.00     0.075 A 
ATOM     10  C9  UNK     1      39.101  15.114  -1.076  1.00  0.00     0.071 A 
ATOM     11  C10 UNK     1      39.507  14.916  -2.397  1.00  0.00     0.074 A 
ENDROOT
BRANCH   5  12
ATOM     12  C5  UNK     1      39.866  21.091  -0.716  1.00  0.00    -0.002 A 
ATOM     13  C12 UNK     1      40.417  22.247  -1.276  1.00  0.00     0.014 A 
ATOM     14  C14 UNK     1      40.361  23.457  -0.584  1.00  0.00     0.001 A 
ATOM     15  C15 UNK     1      39.753  23.516   0.670  1.00  0.00     0.000 A 
ATOM     16  C13 UNK     1      39.202  22.365   1.232  1.00  0.00     0.001 A 
ATOM     17  C11 UNK     1      39.258  21.155   0.540  1.00  0.00     0.014 A 
ENDBRANCH   5  12
BRANCH  10  18
ATOM     18  O4  UNK     1      38.693  14.055  -0.324  1.00  0.00    -0.361 OA
ATOM     19  H10 UNK     1      39.259  13.992   0.464  1.00  0.00     0.217 HD
ENDBRANCH  10  18
BRANCH   7  20
ATOM     20  O2  UNK     1      40.310  15.750  -4.456  1.00  0.00    -0.360 OA
ATOM     21  H9  UNK     1      41.251  15.953  -4.572  1.00  0.00     0.217 HD
ENDBRANCH   7  20
TORSDOF 3
ENDMDL
MODEL 8
REMARK VINA RESULT:      -5.9      4.556      7.035
REMARK  3 active torsions:
REMARK  status: ('A' for Active; 'I' for Inactive)
REMARK    1  A    between atoms: O2_2  and  C6_10 
REMARK    2  A    between atoms: O4_4  and  C9_13 
REMARK    3  A    between atoms: C3_7  and  C5_9 
ROOT
ATOM      1  O1  UNK     1      40.245  20.118  -2.470  1.00  0.00    -0.309 OA
ATOM      2  O3  UNK     1      39.241  16.622  -0.635  1.00  0.00    -0.287 OA
ATOM      3  C1  UNK     1      39.963  17.709  -2.605  1.00  0.00     0.081 A 
ATOM      4  C2  UNK     1      40.294  18.939  -3.171  1.00  0.00     0.095 A 
ATOM      5  C3  UNK     1      39.842  20.083  -1.145  1.00  0.00     0.090 A 
ATOM      6  C4  UNK     1      39.543  17.666  -1.197  1.00  0.00     0.190 A 
ATOM      7  C6  UNK     1      40.031  16.540  -3.366  1.00  0.00     0.085 A 
ATOM      8  C7  UNK     1      39.505  18.961  -0.487  1.00  0.00     0.094 A 
ATOM      9  C8  UNK     1      40.697  19.008  -4.505  1.00  0.00     0.075 A 
ATOM     10  C9  UNK     1      40.766  17.842  -5.269  1.00  0.00     0.071 A 
ATOM     11  C10 UNK     1      40.434  16.611  -4.700  1.00  0.00     0.074 A 
ENDROOT
BRANCH   5  12
ATOM     12  C5  UNK     1      39.832  21.403  -0.484  1.00  0.00    -0.002 A 
ATOM     13  C12 UNK     1      40.349  22.521  -1.144  1.00  0.00     0.014 A 
ATOM     14  C14 UNK     1      40.340  23.769  -0.520  1.00  0.00     0.001 A 
ATOM     15  C15 UNK     1      39.814  23.903   0.764  1.00  0.00     0.000 A 
ATOM     16  C13 UNK     1      39.297  22.789   1.426  1.00  0.00     0.001 A 
ATOM     17  C11 UNK     1      39.305  21.541   0.802  1.00  0.00     0.014 A 
ENDBRANCH   5  12
BRANCH  10  18
ATOM     18  O4  UNK     1      41.160  17.905  -6.571  1.00  0.00    -0.361 OA
ATOM     19  H10 UNK     1      41.991  17.412  -6.673  1.00  0.00     0.217 HD
ENDBRANCH  10  18
BRANCH   7  20
ATOM     20  O2  UNK     1      39.718  15.315  -2.860  1.00  0.00    -0.360 OA
ATOM     21  H9  UNK     1      38.802  15.083  -3.072  1.00  0.00     0.217 HD
ENDBRANCH   7  20
TORSDOF 3
ENDMDL
MODEL 9
REMARK VINA RESULT:      -5.6      9.342     10.802
REMARK  3 active torsions:
REMARK  status: ('A' for Active; 'I' for Inactive)
REMARK    1  A    between atoms: O2_2  and  C6_10 
REMARK    2  A    between atoms: O4_4  and  C9_13 
REMARK    3  A    between atoms: C3_7  and  C5_9 
ROOT
ATOM      1  O1  UNK     1      46.223  11.488  -7.613  1.00  0.00    -0.309 OA
ATOM      2  O3  UNK     1      48.213   8.124  -8.763  1.00  0.00    -0.287 OA
ATOM      3  C1  UNK     1      46.200   9.362  -8.788  1.00  0.00     0.081 A 
ATOM      4  C2  UNK     1      45.579  10.535  -8.362  1.00  0.00     0.095 A 
ATOM      5  C3  UNK     1      47.545  11.269  -7.259  1.00  0.00     0.090 A 
ATOM      6  C4  UNK     1      47.605   9.129  -8.422  1.00  0.00     0.190 A 
ATOM      7  C6  UNK     1      45.496   8.426  -9.549  1.00  0.00     0.085 A 
ATOM      8  C7  UNK     1      48.252  10.183  -7.613  1.00  0.00     0.094 A 
ATOM      9  C8  UNK     1      44.248  10.781  -8.698  1.00  0.00     0.075 A 
ATOM     10  C9  UNK     1      43.541   9.848  -9.458  1.00  0.00     0.071 A 
ATOM     11  C10 UNK     1      44.164   8.674  -9.883  1.00  0.00     0.074 A 
ENDROOT
BRANCH   5  12
ATOM     12  C5  UNK     1      48.141  12.358  -6.461  1.00  0.00    -0.002 A 
ATOM     13  C12 UNK     1      47.751  12.548  -5.133  1.00  0.00     0.014 A 
ATOM     14  C14 UNK     1      48.314  13.578  -4.377  1.00  0.00     0.001 A 
ATOM     15  C15 UNK     1      49.269  14.419  -4.947  1.00  0.00     0.000 A 
ATOM     16  C13 UNK     1      49.661  14.231  -6.273  1.00  0.00     0.001 A 
ATOM     17  C11 UNK     1      49.099  13.202  -7.028  1.00  0.00     0.014 A 
ENDBRANCH   5  12
BRANCH  10  18
ATOM     18  O4  UNK     1      42.241  10.085  -9.787  1.00  0.00    -0.361 OA
ATOM     19  H10 UNK     1      42.053   9.671 -10.646  1.00  0.00     0.217 HD
ENDBRANCH  10  18
BRANCH   7  20
ATOM     20  O2  UNK     1      46.058   7.265  -9.988  1.00  0.00    -0.360 OA
ATOM     21  H9  UNK     1      46.839   7.451 -10.531  1.00  0.00     0.217 HD
ENDBRANCH   7  20
TORSDOF 3
ENDMDL
