MODEL 1
REMARK VINA RESULT:      -8.2      0.000      0.000
REMARK  3 active torsions:
REMARK  status: ('A' for Active; 'I' for Inactive)
REMARK    1  A    between atoms: O2_2  and  C6_10 
REMARK    2  A    between atoms: O4_4  and  C9_13 
REMARK    3  A    between atoms: C3_7  and  C5_9 
ROOT
ATOM      1  O1  UNK     1      40.220  14.470  -0.007  1.00  0.00    -0.309 OA
ATOM      2  O3  UNK     1      41.891  11.551  -2.307  1.00  0.00    -0.287 OA
ATOM      3  C1  UNK     1      40.988  12.175  -0.214  1.00  0.00     0.081 A 
ATOM      4  C2  UNK     1      40.421  13.217   0.517  1.00  0.00     0.095 A 
ATOM      5  C3  UNK     1      40.605  14.708  -1.317  1.00  0.00     0.090 A 
ATOM      6  C4  UNK     1      41.390  12.420  -1.607  1.00  0.00     0.190 A 
ATOM      7  C6  UNK     1      41.168  10.919   0.371  1.00  0.00     0.085 A 
ATOM      8  C7  UNK     1      41.155  13.784  -2.123  1.00  0.00     0.094 A 
ATOM      9  C8  UNK     1      40.029  13.010   1.839  1.00  0.00     0.075 A 
ATOM     10  C9  UNK     1      40.208  11.758   2.427  1.00  0.00     0.071 A 
ATOM     11  C10 UNK     1      40.776  10.715   1.694  1.00  0.00     0.074 A 
ENDROOT
BRANCH   5  12
ATOM     12  C5  UNK     1      40.339  16.083  -1.782  1.00  0.00    -0.002 A 
ATOM     13  C12 UNK     1      39.772  17.019  -0.913  1.00  0.00     0.014 A 
ATOM     14  C14 UNK     1      39.519  18.320  -1.351  1.00  0.00     0.001 A 
ATOM     15  C15 UNK     1      39.833  18.688  -2.659  1.00  0.00     0.000 A 
ATOM     16  C13 UNK     1      40.399  17.756  -3.529  1.00  0.00     0.001 A 
ATOM     17  C11 UNK     1      40.652  16.456  -3.091  1.00  0.00     0.014 A 
ENDBRANCH   5  12
BRANCH  10  18
ATOM     18  O4  UNK     1      39.826  11.552   3.718  1.00  0.00    -0.361 OA
ATOM     19  H10 UNK     1      39.503  12.391   4.089  1.00  0.00     0.217 HD
ENDBRANCH  10  18
BRANCH   7  20
ATOM     20  O2  UNK     1      41.717   9.869  -0.301  1.00  0.00    -0.360 OA
ATOM     21  H9  UNK     1      41.202   9.062  -0.147  1.00  0.00     0.217 HD
ENDBRANCH   7  20
TORSDOF 3
ENDMDL
MODEL 2
REMARK VINA RESULT:      -7.8      2.430      6.382
REMARK  3 active torsions:
REMARK  status: ('A' for Active; 'I' for Inactive)
REMARK    1  A    between atoms: O2_2  and  C6_10 
REMARK    2  A    between atoms: O4_4  and  C9_13 
REMARK    3  A    between atoms: C3_7  and  C5_9 
ROOT
ATOM      1  O1  UNK     1      39.755  15.636  -0.260  1.00  0.00    -0.309 OA
ATOM      2  O3  UNK     1      40.963  17.247  -3.802  1.00  0.00    -0.287 OA
ATOM      3  C1  UNK     1      39.878  17.568  -1.727  1.00  0.00     0.081 A 
ATOM      4  C2  UNK     1      39.494  16.954  -0.536  1.00  0.00     0.095 A 
ATOM      5  C3  UNK     1      40.422  14.881  -1.212  1.00  0.00     0.090 A 
ATOM      6  C4  UNK     1      40.594  16.773  -2.736  1.00  0.00     0.190 A 
ATOM      7  C6  UNK     1      39.586  18.915  -1.954  1.00  0.00     0.085 A 
ATOM      8  C7  UNK     1      40.848  15.359  -2.393  1.00  0.00     0.094 A 
ATOM      9  C8  UNK     1      38.815  17.686   0.438  1.00  0.00     0.075 A 
ATOM     10  C9  UNK     1      38.521  19.032   0.215  1.00  0.00     0.071 A 
ATOM     11  C10 UNK     1      38.906  19.644  -0.978  1.00  0.00     0.074 A 
ENDROOT
BRANCH   5  12
ATOM     12  C5  UNK     1      40.657  13.480  -0.812  1.00  0.00    -0.002 A 
ATOM     13  C12 UNK     1      41.403  12.631  -1.634  1.00  0.00     0.014 A 
ATOM     14  C14 UNK     1      41.624  11.306  -1.256  1.00  0.00     0.001 A 
ATOM     15  C15 UNK     1      41.102  10.826  -0.055  1.00  0.00     0.000 A 
ATOM     16  C13 UNK     1      40.357  11.671   0.768  1.00  0.00     0.001 A 
ATOM     17  C11 UNK     1      40.135  12.995   0.391  1.00  0.00     0.014 A 
ENDBRANCH   5  12
BRANCH  10  18
ATOM     18  O4  UNK     1      37.859  19.749   1.165  1.00  0.00    -0.361 OA
ATOM     19  H10 UNK     1      38.230  19.535   2.037  1.00  0.00     0.217 HD
ENDBRANCH  10  18
BRANCH   7  20
ATOM     20  O2  UNK     1      39.939  19.559  -3.101  1.00  0.00    -0.360 OA
ATOM     21  H9  UNK     1      40.090  20.501  -2.928  1.00  0.00     0.217 HD
ENDBRANCH   7  20
TORSDOF 3
ENDMDL
MODEL 3
REMARK VINA RESULT:      -7.8      2.427      6.286
REMARK  3 active torsions:
REMARK  status: ('A' for Active; 'I' for Inactive)
REMARK    1  A    between atoms: O2_2  and  C6_10 
REMARK    2  A    between atoms: O4_4  and  C9_13 
REMARK    3  A    between atoms: C3_7  and  C5_9 
ROOT
ATOM      1  O1  UNK     1      39.763  15.636  -0.249  1.00  0.00    -0.309 OA
ATOM      2  O3  UNK     1      40.967  17.240  -3.795  1.00  0.00    -0.287 OA
ATOM      3  C1  UNK     1      39.879  17.563  -1.722  1.00  0.00     0.081 A 
ATOM      4  C2  UNK     1      39.497  16.953  -0.529  1.00  0.00     0.095 A 
ATOM      5  C3  UNK     1      40.434  14.881  -1.198  1.00  0.00     0.090 A 
ATOM      6  C4  UNK     1      40.600  16.769  -2.728  1.00  0.00     0.190 A 
ATOM      7  C6  UNK     1      39.582  18.908  -1.955  1.00  0.00     0.085 A 
ATOM      8  C7  UNK     1      40.859  15.356  -2.379  1.00  0.00     0.094 A 
ATOM      9  C8  UNK     1      38.814  17.685   0.442  1.00  0.00     0.075 A 
ATOM     10  C9  UNK     1      38.515  19.029   0.214  1.00  0.00     0.071 A 
ATOM     11  C10 UNK     1      38.899  19.639  -0.981  1.00  0.00     0.074 A 
ENDROOT
BRANCH   5  12
ATOM     12  C5  UNK     1      40.674  13.482  -0.792  1.00  0.00    -0.002 A 
ATOM     13  C12 UNK     1      40.210  13.020   0.442  1.00  0.00     0.014 A 
ATOM     14  C14 UNK     1      40.436  11.698   0.826  1.00  0.00     0.001 A 
ATOM     15  C15 UNK     1      41.127  10.833  -0.023  1.00  0.00     0.000 A 
ATOM     16  C13 UNK     1      41.592  11.291  -1.256  1.00  0.00     0.001 A 
ATOM     17  C11 UNK     1      41.366  12.613  -1.640  1.00  0.00     0.014 A 
ENDBRANCH   5  12
BRANCH  10  18
ATOM     18  O4  UNK     1      37.849  19.747   1.161  1.00  0.00    -0.361 OA
ATOM     19  H10 UNK     1      38.491  20.275   1.665  1.00  0.00     0.217 HD
ENDBRANCH  10  18
BRANCH   7  20
ATOM     20  O2  UNK     1      39.934  19.550  -3.103  1.00  0.00    -0.360 OA
ATOM     21  H9  UNK     1      39.362  20.318  -3.252  1.00  0.00     0.217 HD
ENDBRANCH   7  20
TORSDOF 3
ENDMDL
MODEL 4
REMARK VINA RESULT:      -7.6      2.608      4.208
REMARK  3 active torsions:
REMARK  status: ('A' for Active; 'I' for Inactive)
REMARK    1  A    between atoms: O2_2  and  C6_10 
REMARK    2  A    between atoms: O4_4  and  C9_13 
REMARK    3  A    between atoms: C3_7  and  C5_9 
ROOT
ATOM      1  O1  UNK     1      40.337  17.006  -1.227  1.00  0.00    -0.309 OA
ATOM      2  O3  UNK     1      36.883  14.927  -0.638  1.00  0.00    -0.287 OA
ATOM      3  C1  UNK     1      39.189  14.867  -1.150  1.00  0.00     0.081 A 
ATOM      4  C2  UNK     1      40.335  15.638  -1.338  1.00  0.00     0.095 A 
ATOM      5  C3  UNK     1      39.146  17.646  -0.923  1.00  0.00     0.090 A 
ATOM      6  C4  UNK     1      37.925  15.541  -0.818  1.00  0.00     0.190 A 
ATOM      7  C6  UNK     1      39.245  13.476  -1.274  1.00  0.00     0.085 A 
ATOM      8  C7  UNK     1      37.980  17.014  -0.714  1.00  0.00     0.094 A 
ATOM      9  C8  UNK     1      41.546  15.022  -1.651  1.00  0.00     0.075 A 
ATOM     10  C9  UNK     1      41.607  13.634  -1.776  1.00  0.00     0.071 A 
ATOM     11  C10 UNK     1      40.458  12.863  -1.588  1.00  0.00     0.074 A 
ENDROOT
BRANCH   5  12
ATOM     12  C5  UNK     1      39.262  19.114  -0.823  1.00  0.00    -0.002 A 
ATOM     13  C12 UNK     1      38.588  19.803   0.189  1.00  0.00     0.014 A 
ATOM     14  C14 UNK     1      38.697  21.191   0.285  1.00  0.00     0.001 A 
ATOM     15  C15 UNK     1      39.481  21.894  -0.630  1.00  0.00     0.000 A 
ATOM     16  C13 UNK     1      40.155  21.209  -1.642  1.00  0.00     0.001 A 
ATOM     17  C11 UNK     1      40.046  19.822  -1.737  1.00  0.00     0.014 A 
ENDBRANCH   5  12
BRANCH  10  18
ATOM     18  O4  UNK     1      42.789  13.030  -2.081  1.00  0.00    -0.361 OA
ATOM     19  H10 UNK     1      43.452  13.714  -2.273  1.00  0.00     0.217 HD
ENDBRANCH  10  18
BRANCH   7  20
ATOM     20  O2  UNK     1      38.154  12.679  -1.100  1.00  0.00    -0.360 OA
ATOM     21  H9  UNK     1      38.047  12.081  -1.855  1.00  0.00     0.217 HD
ENDBRANCH   7  20
TORSDOF 3
ENDMDL
MODEL 5
REMARK VINA RESULT:      -7.2      2.425      6.914
REMARK  3 active torsions:
REMARK  status: ('A' for Active; 'I' for Inactive)
REMARK    1  A    between atoms: O2_2  and  C6_10 
REMARK    2  A    between atoms: O4_4  and  C9_13 
REMARK    3  A    between atoms: C3_7  and  C5_9 
ROOT
ATOM      1  O1  UNK     1      40.730  15.128  -2.140  1.00  0.00    -0.309 OA
ATOM      2  O3  UNK     1      38.950  17.826   0.341  1.00  0.00    -0.287 OA
ATOM      3  C1  UNK     1      39.927  17.389  -1.767  1.00  0.00     0.081 A 
ATOM      4  C2  UNK     1      40.528  16.417  -2.564  1.00  0.00     0.095 A 
ATOM      5  C3  UNK     1      40.324  14.782  -0.860  1.00  0.00     0.090 A 
ATOM      6  C4  UNK     1      39.487  17.025  -0.412  1.00  0.00     0.190 A 
ATOM      7  C6  UNK     1      39.746  18.687  -2.250  1.00  0.00     0.085 A 
ATOM      8  C7  UNK     1      39.729  15.626  -0.002  1.00  0.00     0.094 A 
ATOM      9  C8  UNK     1      40.952  16.737  -3.853  1.00  0.00     0.075 A 
ATOM     10  C9  UNK     1      40.774  18.032  -4.341  1.00  0.00     0.071 A 
ATOM     11  C10 UNK     1      40.172  19.005  -3.541  1.00  0.00     0.074 A 
ENDROOT
BRANCH   5  12
ATOM     12  C5  UNK     1      40.582  13.372  -0.509  1.00  0.00    -0.002 A 
ATOM     13  C12 UNK     1      40.146  12.863   0.717  1.00  0.00     0.014 A 
ATOM     14  C14 UNK     1      40.390  11.530   1.050  1.00  0.00     0.001 A 
ATOM     15  C15 UNK     1      41.071  10.702   0.158  1.00  0.00     0.000 A 
ATOM     16  C13 UNK     1      41.508  11.206  -1.067  1.00  0.00     0.001 A 
ATOM     17  C11 UNK     1      41.264  12.538  -1.400  1.00  0.00     0.014 A 
ENDBRANCH   5  12
BRANCH  10  18
ATOM     18  O4  UNK     1      41.187  18.347  -5.600  1.00  0.00    -0.361 OA
ATOM     19  H10 UNK     1      40.437  18.247  -6.211  1.00  0.00     0.217 HD
ENDBRANCH  10  18
BRANCH   7  20
ATOM     20  O2  UNK     1      39.164  19.672  -1.511  1.00  0.00    -0.360 OA
ATOM     21  H9  UNK     1      39.210  19.460  -0.567  1.00  0.00     0.217 HD
ENDBRANCH   7  20
TORSDOF 3
ENDMDL
MODEL 6
REMARK VINA RESULT:      -6.7      1.640      2.696
REMARK  3 active torsions:
REMARK  status: ('A' for Active; 'I' for Inactive)
REMARK    1  A    between atoms: O2_2  and  C6_10 
REMARK    2  A    between atoms: O4_4  and  C9_13 
REMARK    3  A    between atoms: C3_7  and  C5_9 
ROOT
ATOM      1  O1  UNK     1      39.449  15.252  -0.128  1.00  0.00    -0.309 OA
ATOM      2  O3  UNK     1      42.474  14.701  -2.801  1.00  0.00    -0.287 OA
ATOM      3  C1  UNK     1      40.996  13.737  -1.230  1.00  0.00     0.081 A 
ATOM      4  C2  UNK     1      39.961  13.995  -0.332  1.00  0.00     0.095 A 
ATOM      5  C3  UNK     1      39.991  16.310  -0.841  1.00  0.00     0.090 A 
ATOM      6  C4  UNK     1      41.567  14.855  -1.995  1.00  0.00     0.190 A 
ATOM      7  C6  UNK     1      41.478  12.437  -1.398  1.00  0.00     0.085 A 
ATOM      8  C7  UNK     1      40.984  16.188  -1.737  1.00  0.00     0.094 A 
ATOM      9  C8  UNK     1      39.400  12.952   0.404  1.00  0.00     0.075 A 
ATOM     10  C9  UNK     1      39.879  11.651   0.240  1.00  0.00     0.071 A 
ATOM     11  C10 UNK     1      40.915  11.395  -0.659  1.00  0.00     0.074 A 
ENDROOT
BRANCH   5  12
ATOM     12  C5  UNK     1      39.364  17.614  -0.550  1.00  0.00    -0.002 A 
ATOM     13  C12 UNK     1      39.551  18.692  -1.420  1.00  0.00     0.014 A 
ATOM     14  C14 UNK     1      38.959  19.925  -1.145  1.00  0.00     0.001 A 
ATOM     15  C15 UNK     1      38.177  20.084  -0.002  1.00  0.00     0.000 A 
ATOM     16  C13 UNK     1      37.987  19.010   0.868  1.00  0.00     0.001 A 
ATOM     17  C11 UNK     1      38.579  17.777   0.594  1.00  0.00     0.014 A 
ENDBRANCH   5  12
BRANCH  10  18
ATOM     18  O4  UNK     1      39.333  10.630   0.957  1.00  0.00    -0.361 OA
ATOM     19  H10 UNK     1      40.040  10.173   1.443  1.00  0.00     0.217 HD
ENDBRANCH  10  18
BRANCH   7  20
ATOM     20  O2  UNK     1      42.486  12.133  -2.262  1.00  0.00    -0.360 OA
ATOM     21  H9  UNK     1      42.774  11.216  -2.138  1.00  0.00     0.217 HD
ENDBRANCH   7  20
TORSDOF 3
ENDMDL
MODEL 7
REMARK VINA RESULT:      -6.5      3.310      5.740
REMARK  3 active torsions:
REMARK  status: ('A' for Active; 'I' for Inactive)
REMARK    1  A    between atoms: O2_2  and  C6_10 
REMARK    2  A    between atoms: O4_4  and  C9_13 
REMARK    3  A    between atoms: C3_7  and  C5_9 
ROOT
ATOM      1  O1  UNK     1      39.521  18.720  -0.703  1.00  0.00    -0.309 OA
ATOM      2  O3  UNK     1      40.721  18.344  -4.578  1.00  0.00    -0.287 OA
ATOM      3  C1  UNK     1      39.937  17.283  -2.617  1.00  0.00     0.081 A 
ATOM      4  C2  UNK     1      39.537  17.483  -1.297  1.00  0.00     0.095 A 
ATOM      5  C3  UNK     1      39.927  19.816  -1.448  1.00  0.00     0.090 A 
ATOM      6  C4  UNK     1      40.360  18.445  -3.414  1.00  0.00     0.190 A 
ATOM      7  C6  UNK     1      39.934  16.001  -3.171  1.00  0.00     0.085 A 
ATOM      8  C7  UNK     1      40.327  19.753  -2.728  1.00  0.00     0.094 A 
ATOM      9  C8  UNK     1      39.130  16.398  -0.521  1.00  0.00     0.075 A 
ATOM     10  C9  UNK     1      39.126  15.115  -1.069  1.00  0.00     0.071 A 
ATOM     11  C10 UNK     1      39.526  14.918  -2.392  1.00  0.00     0.074 A 
ENDROOT
BRANCH   5  12
ATOM     12  C5  UNK     1      39.864  21.096  -0.716  1.00  0.00    -0.002 A 
ATOM     13  C12 UNK     1      40.398  22.256  -1.284  1.00  0.00     0.014 A 
ATOM     14  C14 UNK     1      40.339  23.466  -0.592  1.00  0.00     0.001 A 
ATOM     15  C15 UNK     1      39.746  23.521   0.668  1.00  0.00     0.000 A 
ATOM     16  C13 UNK     1      39.212  22.365   1.238  1.00  0.00     0.001 A 
ATOM     17  C11 UNK     1      39.270  21.155   0.547  1.00  0.00     0.014 A 
ENDBRANCH   5  12
BRANCH  10  18
ATOM     18  O4  UNK     1      38.727  14.054  -0.314  1.00  0.00    -0.361 OA
ATOM     19  H10 UNK     1      38.051  13.555  -0.803  1.00  0.00     0.217 HD
ENDBRANCH  10  18
BRANCH   7  20
ATOM     20  O2  UNK     1      40.315  15.755  -4.455  1.00  0.00    -0.360 OA
ATOM     21  H9  UNK     1      39.725  16.206  -5.077  1.00  0.00     0.217 HD
ENDBRANCH   7  20
TORSDOF 3
ENDMDL
MODEL 8
REMARK VINA RESULT:      -6.0     15.016     16.924
REMARK  3 active torsions:
REMARK  status: ('A' for Active; 'I' for Inactive)
REMARK    1  A    between atoms: O2_2  and  C6_10 
REMARK    2  A    between atoms: O4_4  and  C9_13 
REMARK    3  A    between atoms: C3_7  and  C5_9 
ROOT
ATOM      1  O1  UNK     1      43.996   0.074   8.972  1.00  0.00    -0.309 OA
ATOM      2  O3  UNK     1      40.961   2.246   7.337  1.00  0.00    -0.287 OA
ATOM      3  C1  UNK     1      41.609   0.387   8.644  1.00  0.00     0.081 A 
ATOM      4  C2  UNK     1      42.694  -0.309   9.175  1.00  0.00     0.095 A 
ATOM      5  C3  UNK     1      44.241   1.198   8.200  1.00  0.00     0.090 A 
ATOM      6  C4  UNK     1      41.864   1.586   7.832  1.00  0.00     0.190 A 
ATOM      7  C6  UNK     1      40.304  -0.049   8.883  1.00  0.00     0.085 A 
ATOM      8  C7  UNK     1      43.282   1.955   7.641  1.00  0.00     0.094 A 
ATOM      9  C8  UNK     1      42.479  -1.449   9.951  1.00  0.00     0.075 A 
ATOM     10  C9  UNK     1      41.177  -1.888  10.192  1.00  0.00     0.071 A 
ATOM     11  C10 UNK     1      40.092  -1.189   9.660  1.00  0.00     0.074 A 
ENDROOT
BRANCH   5  12
ATOM     12  C5  UNK     1      45.673   1.525   8.051  1.00  0.00    -0.002 A 
ATOM     13  C12 UNK     1      46.103   2.324   6.988  1.00  0.00     0.014 A 
ATOM     14  C14 UNK     1      47.457   2.632   6.847  1.00  0.00     0.001 A 
ATOM     15  C15 UNK     1      48.383   2.144   7.768  1.00  0.00     0.000 A 
ATOM     16  C13 UNK     1      47.957   1.346   8.830  1.00  0.00     0.001 A 
ATOM     17  C11 UNK     1      46.604   1.038   8.972  1.00  0.00     0.014 A 
ENDBRANCH   5  12
BRANCH  10  18
ATOM     18  O4  UNK     1      40.964  -2.999  10.950  1.00  0.00    -0.361 OA
ATOM     19  H10 UNK     1      41.260  -2.822  11.859  1.00  0.00     0.217 HD
ENDBRANCH  10  18
BRANCH   7  20
ATOM     20  O2  UNK     1      39.212   0.597   8.388  1.00  0.00    -0.360 OA
ATOM     21  H9  UNK     1      38.639  -0.022   7.910  1.00  0.00     0.217 HD
ENDBRANCH   7  20
TORSDOF 3
ENDMDL
MODEL 9
REMARK VINA RESULT:      -6.0     14.551     16.761
REMARK  3 active torsions:
REMARK  status: ('A' for Active; 'I' for Inactive)
REMARK    1  A    between atoms: O2_2  and  C6_10 
REMARK    2  A    between atoms: O4_4  and  C9_13 
REMARK    3  A    between atoms: C3_7  and  C5_9 
ROOT
ATOM      1  O1  UNK     1      43.322   1.518   7.910  1.00  0.00    -0.309 OA
ATOM      2  O3  UNK     1      42.055  -1.259  10.608  1.00  0.00    -0.287 OA
ATOM      3  C1  UNK     1      41.480   0.328   8.955  1.00  0.00     0.081 A 
ATOM      4  C2  UNK     1      41.980   1.264   8.051  1.00  0.00     0.095 A 
ATOM      5  C3  UNK     1      44.214   0.819   8.707  1.00  0.00     0.090 A 
ATOM      6  C4  UNK     1      42.424  -0.422   9.796  1.00  0.00     0.190 A 
ATOM      7  C6  UNK     1      40.104   0.110   9.057  1.00  0.00     0.085 A 
ATOM      8  C7  UNK     1      43.856  -0.110   9.608  1.00  0.00     0.094 A 
ATOM      9  C8  UNK     1      41.106   1.988   7.240  1.00  0.00     0.075 A 
ATOM     10  C9  UNK     1      39.731   1.773   7.339  1.00  0.00     0.071 A 
ATOM     11  C10 UNK     1      39.232   0.836   8.244  1.00  0.00     0.074 A 
ENDROOT
BRANCH   5  12
ATOM     12  C5  UNK     1      45.630   1.165   8.470  1.00  0.00    -0.002 A 
ATOM     13  C12 UNK     1      46.614   0.745   9.369  1.00  0.00     0.014 A 
ATOM     14  C14 UNK     1      47.952   1.072   9.145  1.00  0.00     0.001 A 
ATOM     15  C15 UNK     1      48.310   1.818   8.023  1.00  0.00     0.000 A 
ATOM     16  C13 UNK     1      47.329   2.239   7.123  1.00  0.00     0.001 A 
ATOM     17  C11 UNK     1      45.992   1.912   7.346  1.00  0.00     0.014 A 
ENDBRANCH   5  12
BRANCH  10  18
ATOM     18  O4  UNK     1      38.875   2.477   6.547  1.00  0.00    -0.361 OA
ATOM     19  H10 UNK     1      39.225   2.492   5.640  1.00  0.00     0.217 HD
ENDBRANCH  10  18
BRANCH   7  20
ATOM     20  O2  UNK     1      39.566  -0.792   9.923  1.00  0.00    -0.360 OA
ATOM     21  H9  UNK     1      39.621  -0.464  10.833  1.00  0.00     0.217 HD
ENDBRANCH   7  20
TORSDOF 3
ENDMDL
MODEL 10
REMARK VINA RESULT:      -6.0     14.553     16.781
REMARK  3 active torsions:
REMARK  status: ('A' for Active; 'I' for Inactive)
REMARK    1  A    between atoms: O2_2  and  C6_10 
REMARK    2  A    between atoms: O4_4  and  C9_13 
REMARK    3  A    between atoms: C3_7  and  C5_9 
ROOT
ATOM      1  O1  UNK     1      43.311   1.515   7.909  1.00  0.00    -0.309 OA
ATOM      2  O3  UNK     1      42.042  -1.246  10.623  1.00  0.00    -0.287 OA
ATOM      3  C1  UNK     1      41.468   0.333   8.961  1.00  0.00     0.081 A 
ATOM      4  C2  UNK     1      41.969   1.263   8.052  1.00  0.00     0.095 A 
ATOM      5  C3  UNK     1      44.203   0.820   8.710  1.00  0.00     0.090 A 
ATOM      6  C4  UNK     1      42.412  -0.414   9.806  1.00  0.00     0.190 A 
ATOM      7  C6  UNK     1      40.092   0.117   9.065  1.00  0.00     0.085 A 
ATOM      8  C7  UNK     1      43.844  -0.104   9.616  1.00  0.00     0.094 A 
ATOM      9  C8  UNK     1      41.096   1.983   7.238  1.00  0.00     0.075 A 
ATOM     10  C9  UNK     1      39.720   1.770   7.338  1.00  0.00     0.071 A 
ATOM     11  C10 UNK     1      39.220   0.838   8.249  1.00  0.00     0.074 A 
ENDROOT
BRANCH   5  12
ATOM     12  C5  UNK     1      45.618   1.163   8.470  1.00  0.00    -0.002 A 
ATOM     13  C12 UNK     1      45.978   1.912   7.347  1.00  0.00     0.014 A 
ATOM     14  C14 UNK     1      47.316   2.236   7.119  1.00  0.00     0.001 A 
ATOM     15  C15 UNK     1      48.298   1.813   8.014  1.00  0.00     0.000 A 
ATOM     16  C13 UNK     1      47.943   1.064   9.136  1.00  0.00     0.001 A 
ATOM     17  C11 UNK     1      46.606   0.740   9.364  1.00  0.00     0.014 A 
ENDBRANCH   5  12
BRANCH  10  18
ATOM     18  O4  UNK     1      38.864   2.471   6.543  1.00  0.00    -0.361 OA
ATOM     19  H10 UNK     1      37.980   2.461   6.947  1.00  0.00     0.217 HD
ENDBRANCH  10  18
BRANCH   7  20
ATOM     20  O2  UNK     1      39.553  -0.780   9.936  1.00  0.00    -0.360 OA
ATOM     21  H9  UNK     1      38.974  -1.402   9.470  1.00  0.00     0.217 HD
ENDBRANCH   7  20
TORSDOF 3
ENDMDL
MODEL 11
REMARK VINA RESULT:      -6.0     14.731     16.410
REMARK  3 active torsions:
REMARK  status: ('A' for Active; 'I' for Inactive)
REMARK    1  A    between atoms: O2_2  and  C6_10 
REMARK    2  A    between atoms: O4_4  and  C9_13 
REMARK    3  A    between atoms: C3_7  and  C5_9 
ROOT
ATOM      1  O1  UNK     1      43.573   1.336   8.452  1.00  0.00    -0.309 OA
ATOM      2  O3  UNK     1      42.721   4.749  10.509  1.00  0.00    -0.287 OA
ATOM      3  C1  UNK     1      41.921   2.955   9.195  1.00  0.00     0.081 A 
ATOM      4  C2  UNK     1      42.281   1.795   8.510  1.00  0.00     0.095 A 
ATOM      5  C3  UNK     1      44.562   2.063   9.097  1.00  0.00     0.090 A 
ATOM      6  C4  UNK     1      42.966   3.724   9.887  1.00  0.00     0.190 A 
ATOM      7  C6  UNK     1      40.590   3.375   9.221  1.00  0.00     0.085 A 
ATOM      8  C7  UNK     1      44.340   3.190   9.792  1.00  0.00     0.094 A 
ATOM      9  C8  UNK     1      41.310   1.046   7.847  1.00  0.00     0.075 A 
ATOM     10  C9  UNK     1      39.978   1.463   7.870  1.00  0.00     0.071 A 
ATOM     11  C10 UNK     1      39.619   2.624   8.556  1.00  0.00     0.074 A 
ENDROOT
BRANCH   5  12
ATOM     12  C5  UNK     1      45.912   1.478   8.977  1.00  0.00    -0.002 A 
ATOM     13  C12 UNK     1      46.323   0.475   9.859  1.00  0.00     0.014 A 
ATOM     14  C14 UNK     1      47.600  -0.078   9.746  1.00  0.00     0.001 A 
ATOM     15  C15 UNK     1      48.468   0.370   8.751  1.00  0.00     0.000 A 
ATOM     16  C13 UNK     1      48.061   1.371   7.868  1.00  0.00     0.001 A 
ATOM     17  C11 UNK     1      46.786   1.923   7.981  1.00  0.00     0.014 A 
ENDBRANCH   5  12
BRANCH  10  18
ATOM     18  O4  UNK     1      39.026   0.733   7.224  1.00  0.00    -0.361 OA
ATOM     19  H10 UNK     1      39.315   0.579   6.309  1.00  0.00     0.217 HD
ENDBRANCH  10  18
BRANCH   7  20
ATOM     20  O2  UNK     1      40.187   4.500   9.875  1.00  0.00    -0.360 OA
ATOM     21  H9  UNK     1      40.530   4.506  10.782  1.00  0.00     0.217 HD
ENDBRANCH   7  20
TORSDOF 3
ENDMDL
MODEL 12
REMARK VINA RESULT:      -6.0     14.780     16.714
REMARK  3 active torsions:
REMARK  status: ('A' for Active; 'I' for Inactive)
REMARK    1  A    between atoms: O2_2  and  C6_10 
REMARK    2  A    between atoms: O4_4  and  C9_13 
REMARK    3  A    between atoms: C3_7  and  C5_9 
ROOT
ATOM      1  O1  UNK     1      44.888   1.820   7.556  1.00  0.00    -0.309 OA
ATOM      2  O3  UNK     1      46.725   0.371  10.892  1.00  0.00    -0.287 OA
ATOM      3  C1  UNK     1      46.938   1.473   8.812  1.00  0.00     0.081 A 
ATOM      4  C2  UNK     1      46.247   1.947   7.698  1.00  0.00     0.095 A 
ATOM      5  C3  UNK     1      44.175   1.186   8.562  1.00  0.00     0.090 A 
ATOM      6  C4  UNK     1      46.184   0.808   9.885  1.00  0.00     0.190 A 
ATOM      7  C6  UNK     1      48.323   1.630   8.904  1.00  0.00     0.085 A 
ATOM      8  C7  UNK     1      44.725   0.694   9.684  1.00  0.00     0.094 A 
ATOM      9  C8  UNK     1      46.938   2.583   6.667  1.00  0.00     0.075 A 
ATOM     10  C9  UNK     1      48.321   2.741   6.754  1.00  0.00     0.071 A 
ATOM     11  C10 UNK     1      49.012   2.267   7.870  1.00  0.00     0.074 A 
ENDROOT
BRANCH   5  12
ATOM     12  C5  UNK     1      42.722   1.110   8.312  1.00  0.00    -0.002 A 
ATOM     13  C12 UNK     1      42.063   2.166   7.677  1.00  0.00     0.014 A 
ATOM     14  C14 UNK     1      40.689   2.094   7.441  1.00  0.00     0.001 A 
ATOM     15  C15 UNK     1      39.971   0.967   7.838  1.00  0.00     0.000 A 
ATOM     16  C13 UNK     1      40.626  -0.090   8.472  1.00  0.00     0.001 A 
ATOM     17  C11 UNK     1      41.999  -0.018   8.708  1.00  0.00     0.014 A 
ENDBRANCH   5  12
BRANCH  10  18
ATOM     18  O4  UNK     1      48.999   3.363   5.749  1.00  0.00    -0.361 OA
ATOM     19  H10 UNK     1      49.057   4.313   5.949  1.00  0.00     0.217 HD
ENDBRANCH  10  18
BRANCH   7  20
ATOM     20  O2  UNK     1      49.043   1.185   9.970  1.00  0.00    -0.360 OA
ATOM     21  H9  UNK     1      49.984   1.387   9.853  1.00  0.00     0.217 HD
ENDBRANCH   7  20
TORSDOF 3
ENDMDL
MODEL 13
REMARK VINA RESULT:      -6.0     13.187     14.999
REMARK  3 active torsions:
REMARK  status: ('A' for Active; 'I' for Inactive)
REMARK    1  A    between atoms: O2_2  and  C6_10 
REMARK    2  A    between atoms: O4_4  and  C9_13 
REMARK    3  A    between atoms: C3_7  and  C5_9 
ROOT
ATOM      1  O1  UNK     1      38.862  22.220  11.004  1.00  0.00    -0.309 OA
ATOM      2  O3  UNK     1      37.594  19.779  14.009  1.00  0.00    -0.287 OA
ATOM      3  C1  UNK     1      39.220  20.234  12.356  1.00  0.00     0.081 A 
ATOM      4  C2  UNK     1      39.597  21.111  11.340  1.00  0.00     0.095 A 
ATOM      5  C3  UNK     1      37.691  22.474  11.702  1.00  0.00     0.090 A 
ATOM      6  C4  UNK     1      37.984  20.504  13.104  1.00  0.00     0.190 A 
ATOM      7  C6  UNK     1      40.007  19.120  12.656  1.00  0.00     0.085 A 
ATOM      8  C7  UNK     1      37.228  21.708  12.703  1.00  0.00     0.094 A 
ATOM      9  C8  UNK     1      40.767  20.879  10.616  1.00  0.00     0.075 A 
ATOM     10  C9  UNK     1      41.556  19.767  10.912  1.00  0.00     0.071 A 
ATOM     11  C10 UNK     1      41.177  18.890  11.930  1.00  0.00     0.074 A 
ENDROOT
BRANCH   5  12
ATOM     12  C5  UNK     1      36.984  23.693  11.265  1.00  0.00    -0.002 A 
ATOM     13  C12 UNK     1      37.355  24.940  11.774  1.00  0.00     0.014 A 
ATOM     14  C14 UNK     1      36.686  26.093  11.362  1.00  0.00     0.001 A 
ATOM     15  C15 UNK     1      35.645  26.003  10.439  1.00  0.00     0.000 A 
ATOM     16  C13 UNK     1      35.272  24.760   9.928  1.00  0.00     0.001 A 
ATOM     17  C11 UNK     1      35.940  23.607  10.339  1.00  0.00     0.014 A 
ENDBRANCH   5  12
BRANCH  10  18
ATOM     18  O4  UNK     1      42.699  19.538  10.208  1.00  0.00    -0.361 OA
ATOM     19  H10 UNK     1      42.572  18.753   9.649  1.00  0.00     0.217 HD
ENDBRANCH  10  18
BRANCH   7  20
ATOM     20  O2  UNK     1      39.683  18.235  13.638  1.00  0.00    -0.360 OA
ATOM     21  H9  UNK     1      38.892  17.731  13.394  1.00  0.00     0.217 HD
ENDBRANCH   7  20
TORSDOF 3
ENDMDL
MODEL 14
REMARK VINA RESULT:      -5.9     14.940     16.859
REMARK  3 active torsions:
REMARK  status: ('A' for Active; 'I' for Inactive)
REMARK    1  A    between atoms: O2_2  and  C6_10 
REMARK    2  A    between atoms: O4_4  and  C9_13 
REMARK    3  A    between atoms: C3_7  and  C5_9 
ROOT
ATOM      1  O1  UNK     1      41.898  -0.443   8.445  1.00  0.00    -0.309 OA
ATOM      2  O3  UNK     1      39.211   2.315   7.113  1.00  0.00    -0.287 OA
ATOM      3  C1  UNK     1      39.598   0.123   7.907  1.00  0.00     0.081 A 
ATOM      4  C2  UNK     1      40.568  -0.771   8.355  1.00  0.00     0.095 A 
ATOM      5  C3  UNK     1      42.291   0.831   8.066  1.00  0.00     0.090 A 
ATOM      6  C4  UNK     1      40.009   1.478   7.513  1.00  0.00     0.190 A 
ATOM      7  C6  UNK     1      38.258  -0.266   7.835  1.00  0.00     0.085 A 
ATOM      8  C7  UNK     1      41.451   1.781   7.625  1.00  0.00     0.094 A 
ATOM      9  C8  UNK     1      40.204  -2.063   8.736  1.00  0.00     0.075 A 
ATOM     10  C9  UNK     1      38.867  -2.455   8.666  1.00  0.00     0.071 A 
ATOM     11  C10 UNK     1      37.896  -1.558   8.218  1.00  0.00     0.074 A 
ENDROOT
BRANCH   5  12
ATOM     12  C5  UNK     1      43.739   1.080   8.209  1.00  0.00    -0.002 A 
ATOM     13  C12 UNK     1      44.441   0.536   9.288  1.00  0.00     0.014 A 
ATOM     14  C14 UNK     1      45.810   0.772   9.423  1.00  0.00     0.001 A 
ATOM     15  C15 UNK     1      46.481   1.550   8.481  1.00  0.00     0.000 A 
ATOM     16  C13 UNK     1      45.782   2.094   7.402  1.00  0.00     0.001 A 
ATOM     17  C11 UNK     1      44.415   1.859   7.266  1.00  0.00     0.014 A 
ENDBRANCH   5  12
BRANCH  10  18
ATOM     18  O4  UNK     1      38.508  -3.715   9.039  1.00  0.00    -0.361 OA
ATOM     19  H10 UNK     1      37.549  -3.735   9.201  1.00  0.00     0.217 HD
ENDBRANCH  10  18
BRANCH   7  20
ATOM     20  O2  UNK     1      37.273   0.571   7.405  1.00  0.00    -0.360 OA
ATOM     21  H9  UNK     1      36.401   0.180   7.567  1.00  0.00     0.217 HD
ENDBRANCH   7  20
TORSDOF 3
ENDMDL
MODEL 15
REMARK VINA RESULT:      -5.9     12.999     13.900
REMARK  3 active torsions:
REMARK  status: ('A' for Active; 'I' for Inactive)
REMARK    1  A    between atoms: O2_2  and  C6_10 
REMARK    2  A    between atoms: O4_4  and  C9_13 
REMARK    3  A    between atoms: C3_7  and  C5_9 
ROOT
ATOM      1  O1  UNK     1      42.720  20.847  10.610  1.00  0.00    -0.309 OA
ATOM      2  O3  UNK     1      43.764  17.202  12.101  1.00  0.00    -0.287 OA
ATOM      3  C1  UNK     1      44.468  19.253  11.163  1.00  0.00     0.081 A 
ATOM      4  C2  UNK     1      44.042  20.484  10.666  1.00  0.00     0.095 A 
ATOM      5  C3  UNK     1      41.767  19.946  11.060  1.00  0.00     0.090 A 
ATOM      6  C4  UNK     1      43.462  18.298  11.650  1.00  0.00     0.190 A 
ATOM      7  C6  UNK     1      45.828  18.937  11.197  1.00  0.00     0.085 A 
ATOM      8  C7  UNK     1      42.052  18.734  11.566  1.00  0.00     0.094 A 
ATOM      9  C8  UNK     1      44.976  21.409  10.200  1.00  0.00     0.075 A 
ATOM     10  C9  UNK     1      46.336  21.097  10.231  1.00  0.00     0.071 A 
ATOM     11  C10 UNK     1      46.760  19.864  10.730  1.00  0.00     0.074 A 
ENDROOT
BRANCH   5  12
ATOM     12  C5  UNK     1      40.380  20.438  10.961  1.00  0.00    -0.002 A 
ATOM     13  C12 UNK     1      39.488  20.242  12.019  1.00  0.00     0.014 A 
ATOM     14  C14 UNK     1      38.176  20.707  11.925  1.00  0.00     0.001 A 
ATOM     15  C15 UNK     1      37.751  21.370  10.774  1.00  0.00     0.000 A 
ATOM     16  C13 UNK     1      38.639  21.568   9.716  1.00  0.00     0.001 A 
ATOM     17  C11 UNK     1      39.950  21.103   9.809  1.00  0.00     0.014 A 
ENDBRANCH   5  12
BRANCH  10  18
ATOM     18  O4  UNK     1      47.250  21.998   9.778  1.00  0.00    -0.361 OA
ATOM     19  H10 UNK     1      47.889  21.539   9.206  1.00  0.00     0.217 HD
ENDBRANCH  10  18
BRANCH   7  20
ATOM     20  O2  UNK     1      46.294  17.749  11.673  1.00  0.00    -0.360 OA
ATOM     21  H9  UNK     1      46.059  17.027  11.071  1.00  0.00     0.217 HD
ENDBRANCH   7  20
TORSDOF 3
ENDMDL
MODEL 16
REMARK VINA RESULT:      -5.8     20.781     22.061
REMARK  3 active torsions:
REMARK  status: ('A' for Active; 'I' for Inactive)
REMARK    1  A    between atoms: O2_2  and  C6_10 
REMARK    2  A    between atoms: O4_4  and  C9_13 
REMARK    3  A    between atoms: C3_7  and  C5_9 
ROOT
ATOM      1  O1  UNK     1      56.021  -1.055   2.492  1.00  0.00    -0.309 OA
ATOM      2  O3  UNK     1      52.636  -2.261   0.571  1.00  0.00    -0.287 OA
ATOM      3  C1  UNK     1      54.891  -1.573   0.405  1.00  0.00     0.081 A 
ATOM      4  C2  UNK     1      56.013  -1.167   1.124  1.00  0.00     0.095 A 
ATOM      5  C3  UNK     1      54.858  -1.352   3.185  1.00  0.00     0.090 A 
ATOM      6  C4  UNK     1      53.658  -1.897   1.137  1.00  0.00     0.190 A 
ATOM      7  C6  UNK     1      54.940  -1.669  -0.988  1.00  0.00     0.085 A 
ATOM      8  C7  UNK     1      53.716  -1.758   2.607  1.00  0.00     0.094 A 
ATOM      9  C8  UNK     1      57.196  -0.856   0.454  1.00  0.00     0.075 A 
ATOM     10  C9  UNK     1      57.250  -0.950  -0.937  1.00  0.00     0.071 A 
ATOM     11  C10 UNK     1      56.125  -1.357  -1.656  1.00  0.00     0.074 A 
ENDROOT
BRANCH   5  12
ATOM     12  C5  UNK     1      54.977  -1.205   4.649  1.00  0.00    -0.002 A 
ATOM     13  C12 UNK     1      54.371  -2.134   5.499  1.00  0.00     0.014 A 
ATOM     14  C14 UNK     1      54.483  -1.996   6.883  1.00  0.00     0.001 A 
ATOM     15  C15 UNK     1      55.202  -0.929   7.422  1.00  0.00     0.000 A 
ATOM     16  C13 UNK     1      55.808   0.000   6.576  1.00  0.00     0.001 A 
ATOM     17  C11 UNK     1      55.697  -0.138   5.193  1.00  0.00     0.014 A 
ENDBRANCH   5  12
BRANCH  10  18
ATOM     18  O4  UNK     1      58.404  -0.648  -1.595  1.00  0.00    -0.361 OA
ATOM     19  H10 UNK     1      59.033  -0.257  -0.964  1.00  0.00     0.217 HD
ENDBRANCH  10  18
BRANCH   7  20
ATOM     20  O2  UNK     1      53.871  -2.060  -1.735  1.00  0.00    -0.360 OA
ATOM     21  H9  UNK     1      54.003  -2.960  -2.071  1.00  0.00     0.217 HD
ENDBRANCH   7  20
TORSDOF 3
ENDMDL
MODEL 17
REMARK VINA RESULT:      -5.7     14.219     16.144
REMARK  3 active torsions:
REMARK  status: ('A' for Active; 'I' for Inactive)
REMARK    1  A    between atoms: O2_2  and  C6_10 
REMARK    2  A    between atoms: O4_4  and  C9_13 
REMARK    3  A    between atoms: C3_7  and  C5_9 
ROOT
ATOM      1  O1  UNK     1      42.196   1.153   9.475  1.00  0.00    -0.309 OA
ATOM      2  O3  UNK     1      39.064   1.078   6.870  1.00  0.00    -0.287 OA
ATOM      3  C1  UNK     1      40.473  -0.126   8.337  1.00  0.00     0.081 A 
ATOM      4  C2  UNK     1      41.549  -0.030   9.217  1.00  0.00     0.095 A 
ATOM      5  C3  UNK     1      41.763   2.298   8.825  1.00  0.00     0.090 A 
ATOM      6  C4  UNK     1      40.004   1.088   7.653  1.00  0.00     0.190 A 
ATOM      7  C6  UNK     1      39.851  -1.357   8.113  1.00  0.00     0.085 A 
ATOM      8  C7  UNK     1      40.735   2.335   7.962  1.00  0.00     0.094 A 
ATOM      9  C8  UNK     1      42.011  -1.166   9.881  1.00  0.00     0.075 A 
ATOM     10  C9  UNK     1      41.394  -2.398   9.659  1.00  0.00     0.071 A 
ATOM     11  C10 UNK     1      40.316  -2.492   8.778  1.00  0.00     0.074 A 
ENDROOT
BRANCH   5  12
ATOM     12  C5  UNK     1      42.523   3.513   9.179  1.00  0.00    -0.002 A 
ATOM     13  C12 UNK     1      41.913   4.533   9.914  1.00  0.00     0.014 A 
ATOM     14  C14 UNK     1      42.630   5.682  10.249  1.00  0.00     0.001 A 
ATOM     15  C15 UNK     1      43.960   5.814   9.851  1.00  0.00     0.000 A 
ATOM     16  C13 UNK     1      44.573   4.798   9.117  1.00  0.00     0.001 A 
ATOM     17  C11 UNK     1      43.856   3.650   8.783  1.00  0.00     0.014 A 
ENDBRANCH   5  12
BRANCH  10  18
ATOM     18  O4  UNK     1      41.842  -3.509  10.307  1.00  0.00    -0.361 OA
ATOM     19  H10 UNK     1      41.725  -4.280   9.726  1.00  0.00     0.217 HD
ENDBRANCH  10  18
BRANCH   7  20
ATOM     20  O2  UNK     1      38.796  -1.502   7.264  1.00  0.00    -0.360 OA
ATOM     21  H9  UNK     1      37.969  -1.253   7.704  1.00  0.00     0.217 HD
ENDBRANCH   7  20
TORSDOF 3
ENDMDL
