MODEL 1
REMARK VINA RESULT:      -7.8      0.000      0.000
REMARK  3 active torsions:
REMARK  status: ('A' for Active; 'I' for Inactive)
REMARK    1  A    between atoms: O2_2  and  C6_10 
REMARK    2  A    between atoms: O4_4  and  C9_13 
REMARK    3  A    between atoms: C3_7  and  C5_9 
ROOT
ATOM      1  O1  UNK     1      39.743  15.657  -0.272  1.00  0.00    -0.309 OA
ATOM      2  O3  UNK     1      40.945  17.283  -3.809  1.00  0.00    -0.287 OA
ATOM      3  C1  UNK     1      39.872  17.598  -1.727  1.00  0.00     0.081 A 
ATOM      4  C2  UNK     1      39.489  16.979  -0.538  1.00  0.00     0.095 A 
ATOM      5  C3  UNK     1      40.401  14.904  -1.232  1.00  0.00     0.090 A 
ATOM      6  C4  UNK     1      40.578  16.805  -2.745  1.00  0.00     0.190 A 
ATOM      7  C6  UNK     1      39.587  18.948  -1.945  1.00  0.00     0.085 A 
ATOM      8  C7  UNK     1      40.824  15.387  -2.411  1.00  0.00     0.094 A 
ATOM      9  C8  UNK     1      38.820  17.710   0.444  1.00  0.00     0.075 A 
ATOM     10  C9  UNK     1      38.533  19.058   0.230  1.00  0.00     0.071 A 
ATOM     11  C10 UNK     1      38.917  19.676  -0.961  1.00  0.00     0.074 A 
ENDROOT
BRANCH   5  12
ATOM     12  C5  UNK     1      40.628  13.499  -0.841  1.00  0.00    -0.002 A 
ATOM     13  C12 UNK     1      40.040  12.990   0.320  1.00  0.00     0.014 A 
ATOM     14  C14 UNK     1      40.255  11.662   0.690  1.00  0.00     0.001 A 
ATOM     15  C15 UNK     1      41.057  10.839  -0.100  1.00  0.00     0.000 A 
ATOM     16  C13 UNK     1      41.646  11.344  -1.260  1.00  0.00     0.001 A 
ATOM     17  C11 UNK     1      41.431  12.671  -1.630  1.00  0.00     0.014 A 
ENDBRANCH   5  12
BRANCH  10  18
ATOM     18  O4  UNK     1      37.881  19.774   1.188  1.00  0.00    -0.361 OA
ATOM     19  H10 UNK     1      36.941  19.524   1.182  1.00  0.00     0.217 HD
ENDBRANCH  10  18
BRANCH   7  20
ATOM     20  O2  UNK     1      39.940  19.597  -3.089  1.00  0.00    -0.360 OA
ATOM     21  H9  UNK     1      39.579  20.497  -3.094  1.00  0.00     0.217 HD
ENDBRANCH   7  20
TORSDOF 3
ENDMDL
MODEL 2
REMARK VINA RESULT:      -7.2      1.273      2.977
REMARK  3 active torsions:
REMARK  status: ('A' for Active; 'I' for Inactive)
REMARK    1  A    between atoms: O2_2  and  C6_10 
REMARK    2  A    between atoms: O4_4  and  C9_13 
REMARK    3  A    between atoms: C3_7  and  C5_9 
ROOT
ATOM      1  O1  UNK     1      40.730  15.129  -2.127  1.00  0.00    -0.309 OA
ATOM      2  O3  UNK     1      38.945  17.833   0.343  1.00  0.00    -0.287 OA
ATOM      3  C1  UNK     1      39.923  17.391  -1.762  1.00  0.00     0.081 A 
ATOM      4  C2  UNK     1      40.526  16.416  -2.555  1.00  0.00     0.095 A 
ATOM      5  C3  UNK     1      40.324  14.787  -0.846  1.00  0.00     0.090 A 
ATOM      6  C4  UNK     1      39.483  17.030  -0.406  1.00  0.00     0.190 A 
ATOM      7  C6  UNK     1      39.741  18.687  -2.251  1.00  0.00     0.085 A 
ATOM      8  C7  UNK     1      39.727  15.633   0.009  1.00  0.00     0.094 A 
ATOM      9  C8  UNK     1      40.950  16.732  -3.846  1.00  0.00     0.075 A 
ATOM     10  C9  UNK     1      40.771  18.025  -4.338  1.00  0.00     0.071 A 
ATOM     11  C10 UNK     1      40.167  19.000  -3.542  1.00  0.00     0.074 A 
ENDROOT
BRANCH   5  12
ATOM     12  C5  UNK     1      40.584  13.378  -0.490  1.00  0.00    -0.002 A 
ATOM     13  C12 UNK     1      40.182  12.884   0.754  1.00  0.00     0.014 A 
ATOM     14  C14 UNK     1      40.428  11.552   1.092  1.00  0.00     0.001 A 
ATOM     15  C15 UNK     1      41.076  10.711   0.188  1.00  0.00     0.000 A 
ATOM     16  C13 UNK     1      41.479  11.202  -1.055  1.00  0.00     0.001 A 
ATOM     17  C11 UNK     1      41.233  12.533  -1.393  1.00  0.00     0.014 A 
ENDBRANCH   5  12
BRANCH  10  18
ATOM     18  O4  UNK     1      41.183  18.336  -5.598  1.00  0.00    -0.361 OA
ATOM     19  H10 UNK     1      40.442  18.204  -6.214  1.00  0.00     0.217 HD
ENDBRANCH  10  18
BRANCH   7  20
ATOM     20  O2  UNK     1      39.157  19.673  -1.515  1.00  0.00    -0.360 OA
ATOM     21  H9  UNK     1      39.346  20.542  -1.902  1.00  0.00     0.217 HD
ENDBRANCH   7  20
TORSDOF 3
ENDMDL
MODEL 3
REMARK VINA RESULT:      -6.7      1.960      6.195
REMARK  3 active torsions:
REMARK  status: ('A' for Active; 'I' for Inactive)
REMARK    1  A    between atoms: O2_2  and  C6_10 
REMARK    2  A    between atoms: O4_4  and  C9_13 
REMARK    3  A    between atoms: C3_7  and  C5_9 
ROOT
ATOM      1  O1  UNK     1      39.450  15.246  -0.129  1.00  0.00    -0.309 OA
ATOM      2  O3  UNK     1      42.480  14.711  -2.800  1.00  0.00    -0.287 OA
ATOM      3  C1  UNK     1      41.002  13.739  -1.233  1.00  0.00     0.081 A 
ATOM      4  C2  UNK     1      39.967  13.991  -0.336  1.00  0.00     0.095 A 
ATOM      5  C3  UNK     1      39.990  16.308  -0.839  1.00  0.00     0.090 A 
ATOM      6  C4  UNK     1      41.571  14.860  -1.995  1.00  0.00     0.190 A 
ATOM      7  C6  UNK     1      41.489  12.440  -1.403  1.00  0.00     0.085 A 
ATOM      8  C7  UNK     1      40.984  16.191  -1.734  1.00  0.00     0.094 A 
ATOM      9  C8  UNK     1      39.408  12.945   0.398  1.00  0.00     0.075 A 
ATOM     10  C9  UNK     1      39.891  11.646   0.231  1.00  0.00     0.071 A 
ATOM     11  C10 UNK     1      40.928  11.395  -0.668  1.00  0.00     0.074 A 
ENDROOT
BRANCH   5  12
ATOM     12  C5  UNK     1      39.358  17.609  -0.546  1.00  0.00    -0.002 A 
ATOM     13  C12 UNK     1      39.531  18.685  -1.420  1.00  0.00     0.014 A 
ATOM     14  C14 UNK     1      38.934  19.916  -1.143  1.00  0.00     0.001 A 
ATOM     15  C15 UNK     1      38.163  20.074   0.008  1.00  0.00     0.000 A 
ATOM     16  C13 UNK     1      37.989  19.002   0.883  1.00  0.00     0.001 A 
ATOM     17  C11 UNK     1      38.584  17.772   0.606  1.00  0.00     0.014 A 
ENDBRANCH   5  12
BRANCH  10  18
ATOM     18  O4  UNK     1      39.347  10.622   0.945  1.00  0.00    -0.361 OA
ATOM     19  H10 UNK     1      39.718  10.632   1.844  1.00  0.00     0.217 HD
ENDBRANCH  10  18
BRANCH   7  20
ATOM     20  O2  UNK     1      42.498  12.142  -2.267  1.00  0.00    -0.360 OA
ATOM     21  H9  UNK     1      43.310  11.932  -1.781  1.00  0.00     0.217 HD
ENDBRANCH   7  20
TORSDOF 3
ENDMDL
MODEL 4
REMARK VINA RESULT:      -6.3      2.255      6.363
REMARK  3 active torsions:
REMARK  status: ('A' for Active; 'I' for Inactive)
REMARK    1  A    between atoms: O2_2  and  C6_10 
REMARK    2  A    between atoms: O4_4  and  C9_13 
REMARK    3  A    between atoms: C3_7  and  C5_9 
ROOT
ATOM      1  O1  UNK     1      39.772  14.573  -0.154  1.00  0.00    -0.309 OA
ATOM      2  O3  UNK     1      42.484  12.973  -2.740  1.00  0.00    -0.287 OA
ATOM      3  C1  UNK     1      41.047  12.642  -0.894  1.00  0.00     0.081 A 
ATOM      4  C2  UNK     1      40.126  13.252  -0.044  1.00  0.00     0.095 A 
ATOM      5  C3  UNK     1      40.364  15.334  -1.151  1.00  0.00     0.090 A 
ATOM      6  C4  UNK     1      41.670  13.443  -1.957  1.00  0.00     0.190 A 
ATOM      7  C6  UNK     1      41.369  11.292  -0.735  1.00  0.00     0.085 A 
ATOM      8  C7  UNK     1      41.259  14.860  -2.033  1.00  0.00     0.094 A 
ATOM      9  C8  UNK     1      39.519  12.514   0.972  1.00  0.00     0.075 A 
ATOM     10  C9  UNK     1      39.838  11.165   1.135  1.00  0.00     0.071 A 
ATOM     11  C10 UNK     1      40.760  10.556   0.282  1.00  0.00     0.074 A 
ENDROOT
BRANCH   5  12
ATOM     12  C5  UNK     1      39.909  16.738  -1.184  1.00  0.00    -0.002 A 
ATOM     13  C12 UNK     1      40.226  17.552  -2.275  1.00  0.00     0.014 A 
ATOM     14  C14 UNK     1      39.797  18.879  -2.307  1.00  0.00     0.001 A 
ATOM     15  C15 UNK     1      39.048  19.396  -1.250  1.00  0.00     0.000 A 
ATOM     16  C13 UNK     1      38.729  18.586  -0.160  1.00  0.00     0.001 A 
ATOM     17  C11 UNK     1      39.158  17.260  -0.127  1.00  0.00     0.014 A 
ENDBRANCH   5  12
BRANCH  10  18
ATOM     18  O4  UNK     1      39.246  10.441   2.125  1.00  0.00    -0.361 OA
ATOM     19  H10 UNK     1      38.340  10.216   1.852  1.00  0.00     0.217 HD
ENDBRANCH  10  18
BRANCH   7  20
ATOM     20  O2  UNK     1      42.261  10.651  -1.539  1.00  0.00    -0.360 OA
ATOM     21  H9  UNK     1      42.675   9.913  -1.066  1.00  0.00     0.217 HD
ENDBRANCH   7  20
TORSDOF 3
ENDMDL
MODEL 5
REMARK VINA RESULT:      -5.6      9.970     12.024
REMARK  3 active torsions:
REMARK  status: ('A' for Active; 'I' for Inactive)
REMARK    1  A    between atoms: O2_2  and  C6_10 
REMARK    2  A    between atoms: O4_4  and  C9_13 
REMARK    3  A    between atoms: C3_7  and  C5_9 
ROOT
ATOM      1  O1  UNK     1      46.253  11.519  -7.584  1.00  0.00    -0.309 OA
ATOM      2  O3  UNK     1      48.254   8.156  -8.718  1.00  0.00    -0.287 OA
ATOM      3  C1  UNK     1      46.239   9.390  -8.754  1.00  0.00     0.081 A 
ATOM      4  C2  UNK     1      45.614  10.562  -8.334  1.00  0.00     0.095 A 
ATOM      5  C3  UNK     1      47.574  11.303  -7.224  1.00  0.00     0.090 A 
ATOM      6  C4  UNK     1      47.643   9.161  -8.382  1.00  0.00     0.190 A 
ATOM      7  C6  UNK     1      45.540   8.450  -9.516  1.00  0.00     0.085 A 
ATOM      8  C7  UNK     1      48.284  10.218  -7.573  1.00  0.00     0.094 A 
ATOM      9  C8  UNK     1      44.284  10.805  -8.675  1.00  0.00     0.075 A 
ATOM     10  C9  UNK     1      43.582   9.869  -9.436  1.00  0.00     0.071 A 
ATOM     11  C10 UNK     1      44.209   8.695  -9.856  1.00  0.00     0.074 A 
ENDROOT
BRANCH   5  12
ATOM     12  C5  UNK     1      48.165  12.394  -6.426  1.00  0.00    -0.002 A 
ATOM     13  C12 UNK     1      47.763  12.592  -5.102  1.00  0.00     0.014 A 
ATOM     14  C14 UNK     1      48.321  13.624  -4.347  1.00  0.00     0.001 A 
ATOM     15  C15 UNK     1      49.283  14.461  -4.912  1.00  0.00     0.000 A 
ATOM     16  C13 UNK     1      49.686  14.266  -6.234  1.00  0.00     0.001 A 
ATOM     17  C11 UNK     1      49.129  13.235  -6.988  1.00  0.00     0.014 A 
ENDBRANCH   5  12
BRANCH  10  18
ATOM     18  O4  UNK     1      42.283  10.103  -9.772  1.00  0.00    -0.361 OA
ATOM     19  H10 UNK     1      41.891  10.703  -9.115  1.00  0.00     0.217 HD
ENDBRANCH  10  18
BRANCH   7  20
ATOM     20  O2  UNK     1      46.106   7.290  -9.950  1.00  0.00    -0.360 OA
ATOM     21  H9  UNK     1      45.783   7.066 -10.836  1.00  0.00     0.217 HD
ENDBRANCH   7  20
TORSDOF 3
ENDMDL
MODEL 6
REMARK VINA RESULT:      -5.4     11.214     13.528
REMARK  3 active torsions:
REMARK  status: ('A' for Active; 'I' for Inactive)
REMARK    1  A    between atoms: O2_2  and  C6_10 
REMARK    2  A    between atoms: O4_4  and  C9_13 
REMARK    3  A    between atoms: C3_7  and  C5_9 
ROOT
ATOM      1  O1  UNK     1      40.352  14.375 -13.552  1.00  0.00    -0.309 OA
ATOM      2  O3  UNK     1      39.943  10.627 -12.007  1.00  0.00    -0.287 OA
ATOM      3  C1  UNK     1      39.213  12.230 -13.583  1.00  0.00     0.081 A 
ATOM      4  C2  UNK     1      39.406  13.523 -14.065  1.00  0.00     0.095 A 
ATOM      5  C3  UNK     1      41.142  13.930 -12.504  1.00  0.00     0.090 A 
ATOM      6  C4  UNK     1      40.056  11.751 -12.478  1.00  0.00     0.190 A 
ATOM      7  C6  UNK     1      38.235  11.405 -14.144  1.00  0.00     0.085 A 
ATOM      8  C7  UNK     1      41.056  12.706 -11.959  1.00  0.00     0.094 A 
ATOM      9  C8  UNK     1      38.621  14.001 -15.114  1.00  0.00     0.075 A 
ATOM     10  C9  UNK     1      37.642  13.181 -15.678  1.00  0.00     0.071 A 
ATOM     11  C10 UNK     1      37.451  11.886 -15.194  1.00  0.00     0.074 A 
ENDROOT
BRANCH   5  12
ATOM     12  C5  UNK     1      42.129  14.922 -12.033  1.00  0.00    -0.002 A 
ATOM     13  C12 UNK     1      42.882  15.655 -12.955  1.00  0.00     0.014 A 
ATOM     14  C14 UNK     1      43.815  16.592 -12.511  1.00  0.00     0.001 A 
ATOM     15  C15 UNK     1      43.998  16.800 -11.144  1.00  0.00     0.000 A 
ATOM     16  C13 UNK     1      43.248  16.070 -10.221  1.00  0.00     0.001 A 
ATOM     17  C11 UNK     1      42.315  15.134 -10.665  1.00  0.00     0.014 A 
ENDBRANCH   5  12
BRANCH  10  18
ATOM     18  O4  UNK     1      36.875  13.644 -16.703  1.00  0.00    -0.361 OA
ATOM     19  H10 UNK     1      35.962  13.335 -16.578  1.00  0.00     0.217 HD
ENDBRANCH  10  18
BRANCH   7  20
ATOM     20  O2  UNK     1      38.008  10.135 -13.710  1.00  0.00    -0.360 OA
ATOM     21  H9  UNK     1      38.816   9.756 -13.331  1.00  0.00     0.217 HD
ENDBRANCH   7  20
TORSDOF 3
ENDMDL
MODEL 7
REMARK VINA RESULT:      -5.4      9.762     11.399
REMARK  3 active torsions:
REMARK  status: ('A' for Active; 'I' for Inactive)
REMARK    1  A    between atoms: O2_2  and  C6_10 
REMARK    2  A    between atoms: O4_4  and  C9_13 
REMARK    3  A    between atoms: C3_7  and  C5_9 
ROOT
ATOM      1  O1  UNK     1      47.193  12.032  -7.032  1.00  0.00    -0.309 OA
ATOM      2  O3  UNK     1      50.562  12.874  -9.162  1.00  0.00    -0.287 OA
ATOM      3  C1  UNK     1      49.320  13.195  -7.177  1.00  0.00     0.081 A 
ATOM      4  C2  UNK     1      48.147  12.865  -6.502  1.00  0.00     0.095 A 
ATOM      5  C3  UNK     1      47.405  11.504  -8.296  1.00  0.00     0.090 A 
ATOM      6  C4  UNK     1      49.554  12.629  -8.514  1.00  0.00     0.190 A 
ATOM      7  C6  UNK     1      50.258  14.048  -6.589  1.00  0.00     0.085 A 
ATOM      8  C7  UNK     1      48.496  11.742  -9.041  1.00  0.00     0.094 A 
ATOM      9  C8  UNK     1      47.902  13.385  -5.232  1.00  0.00     0.075 A 
ATOM     10  C9  UNK     1      48.836  14.238  -4.641  1.00  0.00     0.071 A 
ATOM     11  C10 UNK     1      50.011  14.567  -5.318  1.00  0.00     0.074 A 
ENDROOT
BRANCH   5  12
ATOM     12  C5  UNK     1      46.322  10.618  -8.766  1.00  0.00    -0.002 A 
ATOM     13  C12 UNK     1      46.627   9.395  -9.369  1.00  0.00     0.014 A 
ATOM     14  C14 UNK     1      45.604   8.558  -9.814  1.00  0.00     0.001 A 
ATOM     15  C15 UNK     1      44.272   8.940  -9.658  1.00  0.00     0.000 A 
ATOM     16  C13 UNK     1      43.963  10.161  -9.056  1.00  0.00     0.001 A 
ATOM     17  C11 UNK     1      44.986  10.998  -8.611  1.00  0.00     0.014 A 
ENDBRANCH   5  12
BRANCH  10  18
ATOM     18  O4  UNK     1      48.600  14.748  -3.400  1.00  0.00    -0.361 OA
ATOM     19  H10 UNK     1      49.376  15.261  -3.118  1.00  0.00     0.217 HD
ENDBRANCH  10  18
BRANCH   7  20
ATOM     20  O2  UNK     1      51.419  14.400  -7.207  1.00  0.00    -0.360 OA
ATOM     21  H9  UNK     1      51.646  15.320  -7.005  1.00  0.00     0.217 HD
ENDBRANCH   7  20
TORSDOF 3
ENDMDL
MODEL 8
REMARK VINA RESULT:      -5.2     10.347     12.365
REMARK  3 active torsions:
REMARK  status: ('A' for Active; 'I' for Inactive)
REMARK    1  A    between atoms: O2_2  and  C6_10 
REMARK    2  A    between atoms: O4_4  and  C9_13 
REMARK    3  A    between atoms: C3_7  and  C5_9 
ROOT
ATOM      1  O1  UNK     1      48.028  11.427  -5.906  1.00  0.00    -0.309 OA
ATOM      2  O3  UNK     1      51.041   8.864  -6.882  1.00  0.00    -0.287 OA
ATOM      3  C1  UNK     1      50.038  10.237  -5.241  1.00  0.00     0.081 A 
ATOM      4  C2  UNK     1      48.982  11.105  -4.973  1.00  0.00     0.095 A 
ATOM      5  C3  UNK     1      48.127  10.869  -7.171  1.00  0.00     0.090 A 
ATOM      6  C4  UNK     1      50.142   9.636  -6.579  1.00  0.00     0.190 A 
ATOM      7  C6  UNK     1      50.981   9.944  -4.252  1.00  0.00     0.085 A 
ATOM      8  C7  UNK     1      49.093  10.016  -7.548  1.00  0.00     0.094 A 
ATOM      9  C8  UNK     1      48.859  11.687  -3.711  1.00  0.00     0.075 A 
ATOM     10  C9  UNK     1      49.799  11.398  -2.721  1.00  0.00     0.071 A 
ATOM     11  C10 UNK     1      50.856  10.528  -2.991  1.00  0.00     0.074 A 
ENDROOT
BRANCH   5  12
ATOM     12  C5  UNK     1      47.048  11.277  -8.093  1.00  0.00    -0.002 A 
ATOM     13  C12 UNK     1      47.330  11.515  -9.441  1.00  0.00     0.014 A 
ATOM     14  C14 UNK     1      46.311  11.901 -10.313  1.00  0.00     0.001 A 
ATOM     15  C15 UNK     1      45.008  12.048  -9.840  1.00  0.00     0.000 A 
ATOM     16  C13 UNK     1      44.723  11.811  -8.495  1.00  0.00     0.001 A 
ATOM     17  C11 UNK     1      45.741  11.425  -7.624  1.00  0.00     0.014 A 
ENDBRANCH   5  12
BRANCH  10  18
ATOM     18  O4  UNK     1      49.682  11.964  -1.487  1.00  0.00    -0.361 OA
ATOM     19  H10 UNK     1      50.007  12.879  -1.528  1.00  0.00     0.217 HD
ENDBRANCH  10  18
BRANCH   7  20
ATOM     20  O2  UNK     1      52.030   9.103  -4.464  1.00  0.00    -0.360 OA
ATOM     21  H9  UNK     1      52.670   9.168  -3.739  1.00  0.00     0.217 HD
ENDBRANCH   7  20
TORSDOF 3
ENDMDL
MODEL 9
REMARK VINA RESULT:      -5.2     10.287     12.031
REMARK  3 active torsions:
REMARK  status: ('A' for Active; 'I' for Inactive)
REMARK    1  A    between atoms: O2_2  and  C6_10 
REMARK    2  A    between atoms: O4_4  and  C9_13 
REMARK    3  A    between atoms: C3_7  and  C5_9 
ROOT
ATOM      1  O1  UNK     1      48.556   9.991  -6.592  1.00  0.00    -0.309 OA
ATOM      2  O3  UNK     1      47.751  13.926  -5.907  1.00  0.00    -0.287 OA
ATOM      3  C1  UNK     1      48.704  11.913  -5.115  1.00  0.00     0.081 A 
ATOM      4  C2  UNK     1      48.948  10.574  -5.413  1.00  0.00     0.095 A 
ATOM      5  C3  UNK     1      47.882  10.768  -7.521  1.00  0.00     0.090 A 
ATOM      6  C4  UNK     1      47.997  12.743  -6.101  1.00  0.00     0.190 A 
ATOM      7  C6  UNK     1      49.126  12.454  -3.898  1.00  0.00     0.085 A 
ATOM      8  C7  UNK     1      47.593  12.068  -7.352  1.00  0.00     0.094 A 
ATOM      9  C8  UNK     1      49.618   9.766  -4.496  1.00  0.00     0.075 A 
ATOM     10  C9  UNK     1      50.042  10.302  -3.279  1.00  0.00     0.071 A 
ATOM     11  C10 UNK     1      49.796  11.643  -2.982  1.00  0.00     0.074 A 
ENDROOT
BRANCH   5  12
ATOM     12  C5  UNK     1      47.513  10.045  -8.754  1.00  0.00    -0.002 A 
ATOM     13  C12 UNK     1      47.145   8.698  -8.694  1.00  0.00     0.014 A 
ATOM     14  C14 UNK     1      46.796   8.014  -9.859  1.00  0.00     0.001 A 
ATOM     15  C15 UNK     1      46.814   8.674 -11.088  1.00  0.00     0.000 A 
ATOM     16  C13 UNK     1      47.181  10.018 -11.151  1.00  0.00     0.001 A 
ATOM     17  C11 UNK     1      47.529  10.702  -9.987  1.00  0.00     0.014 A 
ENDBRANCH   5  12
BRANCH  10  18
ATOM     18  O4  UNK     1      50.698   9.515  -2.381  1.00  0.00    -0.361 OA
ATOM     19  H10 UNK     1      50.461   9.799  -1.482  1.00  0.00     0.217 HD
ENDBRANCH  10  18
BRANCH   7  20
ATOM     20  O2  UNK     1      48.912  13.756  -3.560  1.00  0.00    -0.360 OA
ATOM     21  H9  UNK     1      47.990  14.003  -3.727  1.00  0.00     0.217 HD
ENDBRANCH   7  20
TORSDOF 3
ENDMDL
MODEL 10
REMARK VINA RESULT:      -5.2     10.529     12.973
REMARK  3 active torsions:
REMARK  status: ('A' for Active; 'I' for Inactive)
REMARK    1  A    between atoms: O2_2  and  C6_10 
REMARK    2  A    between atoms: O4_4  and  C9_13 
REMARK    3  A    between atoms: C3_7  and  C5_9 
ROOT
ATOM      1  O1  UNK     1      50.326  11.275  -2.254  1.00  0.00    -0.309 OA
ATOM      2  O3  UNK     1      52.633   8.807  -4.532  1.00  0.00    -0.287 OA
ATOM      3  C1  UNK     1      50.642  10.066  -4.337  1.00  0.00     0.081 A 
ATOM      4  C2  UNK     1      49.903  10.907  -3.507  1.00  0.00     0.095 A 
ATOM      5  C3  UNK     1      51.537  10.781  -1.794  1.00  0.00     0.090 A 
ATOM      6  C4  UNK     1      51.931   9.547  -3.856  1.00  0.00     0.190 A 
ATOM      7  C6  UNK     1      50.162   9.724  -5.604  1.00  0.00     0.085 A 
ATOM      8  C7  UNK     1      52.341   9.970  -2.501  1.00  0.00     0.094 A 
ATOM      9  C8  UNK     1      48.678  11.414  -3.939  1.00  0.00     0.075 A 
ATOM     10  C9  UNK     1      48.195  11.075  -5.204  1.00  0.00     0.071 A 
ATOM     11  C10 UNK     1      48.936  10.233  -6.034  1.00  0.00     0.074 A 
ENDROOT
BRANCH   5  12
ATOM     12  C5  UNK     1      51.899  11.244  -0.440  1.00  0.00    -0.002 A 
ATOM     13  C12 UNK     1      53.234  11.511  -0.123  1.00  0.00     0.014 A 
ATOM     14  C14 UNK     1      53.577  11.948   1.157  1.00  0.00     0.001 A 
ATOM     15  C15 UNK     1      52.586  12.121   2.124  1.00  0.00     0.000 A 
ATOM     16  C13 UNK     1      51.253  11.856   1.810  1.00  0.00     0.001 A 
ATOM     17  C11 UNK     1      50.910  11.419   0.531  1.00  0.00     0.014 A 
ENDBRANCH   5  12
BRANCH  10  18
ATOM     18  O4  UNK     1      46.999  11.569  -5.629  1.00  0.00    -0.361 OA
ATOM     19  H10 UNK     1      46.378  10.831  -5.748  1.00  0.00     0.217 HD
ENDBRANCH  10  18
BRANCH   7  20
ATOM     20  O2  UNK     1      50.846   8.907  -6.452  1.00  0.00    -0.360 OA
ATOM     21  H9  UNK     1      51.509   8.392  -5.967  1.00  0.00     0.217 HD
ENDBRANCH   7  20
TORSDOF 3
ENDMDL
MODEL 11
REMARK VINA RESULT:      -5.2     10.611     13.013
REMARK  3 active torsions:
REMARK  status: ('A' for Active; 'I' for Inactive)
REMARK    1  A    between atoms: O2_2  and  C6_10 
REMARK    2  A    between atoms: O4_4  and  C9_13 
REMARK    3  A    between atoms: C3_7  and  C5_9 
ROOT
ATOM      1  O1  UNK     1      51.083  10.118  -3.765  1.00  0.00    -0.309 OA
ATOM      2  O3  UNK     1      47.508  11.805  -4.752  1.00  0.00    -0.287 OA
ATOM      3  C1  UNK     1      49.281  10.371  -5.374  1.00  0.00     0.081 A 
ATOM      4  C2  UNK     1      50.500   9.829  -4.973  1.00  0.00     0.095 A 
ATOM      5  C3  UNK     1      50.431  10.994  -2.910  1.00  0.00     0.090 A 
ATOM      6  C4  UNK     1      48.582  11.294  -4.467  1.00  0.00     0.190 A 
ATOM      7  C6  UNK     1      48.734  10.041  -6.616  1.00  0.00     0.085 A 
ATOM      8  C7  UNK     1      49.251  11.576  -3.180  1.00  0.00     0.094 A 
ATOM      9  C8  UNK     1      51.182   8.949  -5.814  1.00  0.00     0.075 A 
ATOM     10  C9  UNK     1      50.640   8.616  -7.056  1.00  0.00     0.071 A 
ATOM     11  C10 UNK     1      49.418   9.161  -7.455  1.00  0.00     0.074 A 
ENDROOT
BRANCH   5  12
ATOM     12  C5  UNK     1      51.140  11.231  -1.638  1.00  0.00    -0.002 A 
ATOM     13  C12 UNK     1      50.419  11.522  -0.476  1.00  0.00     0.014 A 
ATOM     14  C14 UNK     1      51.089  11.746   0.727  1.00  0.00     0.001 A 
ATOM     15  C15 UNK     1      52.481  11.679   0.774  1.00  0.00     0.000 A 
ATOM     16  C13 UNK     1      53.204  11.388  -0.384  1.00  0.00     0.001 A 
ATOM     17  C11 UNK     1      52.535  11.164  -1.587  1.00  0.00     0.014 A 
ENDBRANCH   5  12
BRANCH  10  18
ATOM     18  O4  UNK     1      51.303   7.757  -7.879  1.00  0.00    -0.361 OA
ATOM     19  H10 UNK     1      52.199   7.615  -7.530  1.00  0.00     0.217 HD
ENDBRANCH  10  18
BRANCH   7  20
ATOM     20  O2  UNK     1      47.546  10.544  -7.053  1.00  0.00    -0.360 OA
ATOM     21  H9  UNK     1      47.231  11.238  -6.455  1.00  0.00     0.217 HD
ENDBRANCH   7  20
TORSDOF 3
ENDMDL
MODEL 12
REMARK VINA RESULT:      -5.2     10.404     13.142
REMARK  3 active torsions:
REMARK  status: ('A' for Active; 'I' for Inactive)
REMARK    1  A    between atoms: O2_2  and  C6_10 
REMARK    2  A    between atoms: O4_4  and  C9_13 
REMARK    3  A    between atoms: C3_7  and  C5_9 
ROOT
ATOM      1  O1  UNK     1      43.323  12.033 -11.734  1.00  0.00    -0.309 OA
ATOM      2  O3  UNK     1      44.842  10.182  -8.438  1.00  0.00    -0.287 OA
ATOM      3  C1  UNK     1      43.742   9.972 -10.519  1.00  0.00     0.081 A 
ATOM      4  C2  UNK     1      43.244  10.668 -11.618  1.00  0.00     0.095 A 
ATOM      5  C3  UNK     1      43.917  12.750 -10.706  1.00  0.00     0.090 A 
ATOM      6  C4  UNK     1      44.381  10.727  -9.431  1.00  0.00     0.190 A 
ATOM      7  C6  UNK     1      43.634   8.581 -10.455  1.00  0.00     0.085 A 
ATOM      8  C7  UNK     1      44.439  12.194  -9.601  1.00  0.00     0.094 A 
ATOM      9  C8  UNK     1      42.634   9.976 -12.665  1.00  0.00     0.075 A 
ATOM     10  C9  UNK     1      42.524   8.586 -12.605  1.00  0.00     0.071 A 
ATOM     11  C10 UNK     1      43.024   7.891 -11.502  1.00  0.00     0.074 A 
ENDROOT
BRANCH   5  12
ATOM     12  C5  UNK     1      43.955  14.208 -10.934  1.00  0.00    -0.002 A 
ATOM     13  C12 UNK     1      44.693  14.732 -11.999  1.00  0.00     0.014 A 
ATOM     14  C14 UNK     1      44.730  16.110 -12.215  1.00  0.00     0.001 A 
ATOM     15  C15 UNK     1      44.029  16.968 -11.367  1.00  0.00     0.000 A 
ATOM     16  C13 UNK     1      43.292  16.448 -10.303  1.00  0.00     0.001 A 
ATOM     17  C11 UNK     1      43.255  15.070 -10.087  1.00  0.00     0.014 A 
ENDBRANCH   5  12
BRANCH  10  18
ATOM     18  O4  UNK     1      41.931   7.907 -13.625  1.00  0.00    -0.361 OA
ATOM     19  H10 UNK     1      42.568   7.813 -14.354  1.00  0.00     0.217 HD
ENDBRANCH  10  18
BRANCH   7  20
ATOM     20  O2  UNK     1      44.104   7.856  -9.402  1.00  0.00    -0.360 OA
ATOM     21  H9  UNK     1      44.421   6.990  -9.701  1.00  0.00     0.217 HD
ENDBRANCH   7  20
TORSDOF 3
ENDMDL
MODEL 13
REMARK VINA RESULT:      -5.2     10.705     12.106
REMARK  3 active torsions:
REMARK  status: ('A' for Active; 'I' for Inactive)
REMARK    1  A    between atoms: O2_2  and  C6_10 
REMARK    2  A    between atoms: O4_4  and  C9_13 
REMARK    3  A    between atoms: C3_7  and  C5_9 
ROOT
ATOM      1  O1  UNK     1      48.412  10.572  -5.961  1.00  0.00    -0.309 OA
ATOM      2  O3  UNK     1      50.482  14.024  -6.596  1.00  0.00    -0.287 OA
ATOM      3  C1  UNK     1      50.228  12.052  -5.317  1.00  0.00     0.081 A 
ATOM      4  C2  UNK     1      49.478  10.889  -5.156  1.00  0.00     0.095 A 
ATOM      5  C3  UNK     1      48.064  11.454  -6.972  1.00  0.00     0.090 A 
ATOM      6  C4  UNK     1      49.867  12.986  -6.395  1.00  0.00     0.190 A 
ATOM      7  C6  UNK     1      51.303  12.324  -4.468  1.00  0.00     0.085 A 
ATOM      8  C7  UNK     1      48.711  12.601  -7.231  1.00  0.00     0.094 A 
ATOM      9  C8  UNK     1      49.801   9.986  -4.143  1.00  0.00     0.075 A 
ATOM     10  C9  UNK     1      50.874  10.253  -3.292  1.00  0.00     0.071 A 
ATOM     11  C10 UNK     1      51.624  11.419  -3.456  1.00  0.00     0.074 A 
ENDROOT
BRANCH   5  12
ATOM     12  C5  UNK     1      46.909  11.015  -7.780  1.00  0.00    -0.002 A 
ATOM     13  C12 UNK     1      45.758  11.804  -7.846  1.00  0.00     0.014 A 
ATOM     14  C14 UNK     1      44.666  11.389  -8.610  1.00  0.00     0.001 A 
ATOM     15  C15 UNK     1      44.722  10.184  -9.309  1.00  0.00     0.000 A 
ATOM     16  C13 UNK     1      45.870   9.393  -9.245  1.00  0.00     0.001 A 
ATOM     17  C11 UNK     1      46.961   9.808  -8.483  1.00  0.00     0.014 A 
ENDBRANCH   5  12
BRANCH  10  18
ATOM     18  O4  UNK     1      51.192   9.373  -2.303  1.00  0.00    -0.361 OA
ATOM     19  H10 UNK     1      50.523   8.669  -2.280  1.00  0.00     0.217 HD
ENDBRANCH  10  18
BRANCH   7  20
ATOM     20  O2  UNK     1      52.066  13.445  -4.586  1.00  0.00    -0.360 OA
ATOM     21  H9  UNK     1      51.724  14.150  -4.014  1.00  0.00     0.217 HD
ENDBRANCH   7  20
TORSDOF 3
ENDMDL
MODEL 14
REMARK VINA RESULT:      -5.1     11.810     14.280
REMARK  3 active torsions:
REMARK  status: ('A' for Active; 'I' for Inactive)
REMARK    1  A    between atoms: O2_2  and  C6_10 
REMARK    2  A    between atoms: O4_4  and  C9_13 
REMARK    3  A    between atoms: C3_7  and  C5_9 
ROOT
ATOM      1  O1  UNK     1      52.026   8.939  -3.984  1.00  0.00    -0.309 OA
ATOM      2  O3  UNK     1      51.961  11.096  -0.529  1.00  0.00    -0.287 OA
ATOM      3  C1  UNK     1      50.916  10.586  -2.586  1.00  0.00     0.081 A 
ATOM      4  C2  UNK     1      50.999   9.817  -3.745  1.00  0.00     0.095 A 
ATOM      5  C3  UNK     1      53.027   8.819  -3.033  1.00  0.00     0.090 A 
ATOM      6  C4  UNK     1      51.971  10.455  -1.570  1.00  0.00     0.190 A 
ATOM      7  C6  UNK     1      49.847  11.464  -2.395  1.00  0.00     0.085 A 
ATOM      8  C7  UNK     1      53.056   9.499  -1.876  1.00  0.00     0.094 A 
ATOM      9  C8  UNK     1      50.010   9.921  -4.723  1.00  0.00     0.075 A 
ATOM     10  C9  UNK     1      48.940  10.798  -4.537  1.00  0.00     0.071 A 
ATOM     11  C10 UNK     1      48.859  11.567  -3.375  1.00  0.00     0.074 A 
ENDROOT
BRANCH   5  12
ATOM     12  C5  UNK     1      54.078   7.844  -3.387  1.00  0.00    -0.002 A 
ATOM     13  C12 UNK     1      54.540   6.934  -2.433  1.00  0.00     0.014 A 
ATOM     14  C14 UNK     1      55.534   6.013  -2.766  1.00  0.00     0.001 A 
ATOM     15  C15 UNK     1      56.067   5.998  -4.055  1.00  0.00     0.000 A 
ATOM     16  C13 UNK     1      55.607   6.905  -5.010  1.00  0.00     0.001 A 
ATOM     17  C11 UNK     1      54.614   7.825  -4.677  1.00  0.00     0.014 A 
ENDBRANCH   5  12
BRANCH  10  18
ATOM     18  O4  UNK     1      47.972  10.901  -5.490  1.00  0.00    -0.361 OA
ATOM     19  H10 UNK     1      47.152  11.213  -5.073  1.00  0.00     0.217 HD
ENDBRANCH  10  18
BRANCH   7  20
ATOM     20  O2  UNK     1      49.721  12.236  -1.280  1.00  0.00    -0.360 OA
ATOM     21  H9  UNK     1      48.794  12.481  -1.140  1.00  0.00     0.217 HD
ENDBRANCH   7  20
TORSDOF 3
ENDMDL
MODEL 15
REMARK VINA RESULT:      -5.1     10.226     12.638
REMARK  3 active torsions:
REMARK  status: ('A' for Active; 'I' for Inactive)
REMARK    1  A    between atoms: O2_2  and  C6_10 
REMARK    2  A    between atoms: O4_4  and  C9_13 
REMARK    3  A    between atoms: C3_7  and  C5_9 
ROOT
ATOM      1  O1  UNK     1      49.738   9.073  -5.678  1.00  0.00    -0.309 OA
ATOM      2  O3  UNK     1      47.916  11.864  -8.021  1.00  0.00    -0.287 OA
ATOM      3  C1  UNK     1      48.748  11.281  -5.888  1.00  0.00     0.081 A 
ATOM      4  C2  UNK     1      49.375  10.284  -5.143  1.00  0.00     0.095 A 
ATOM      5  C3  UNK     1      49.461   8.832  -7.015  1.00  0.00     0.090 A 
ATOM      6  C4  UNK     1      48.461  11.033  -7.308  1.00  0.00     0.190 A 
ATOM      7  C6  UNK     1      48.401  12.496  -5.291  1.00  0.00     0.085 A 
ATOM      8  C7  UNK     1      48.869   9.714  -7.835  1.00  0.00     0.094 A 
ATOM      9  C8  UNK     1      49.660  10.495  -3.794  1.00  0.00     0.075 A 
ATOM     10  C9  UNK     1      49.315  11.706  -3.194  1.00  0.00     0.071 A 
ATOM     11  C10 UNK     1      48.688  12.704  -3.941  1.00  0.00     0.074 A 
ENDROOT
BRANCH   5  12
ATOM     12  C5  UNK     1      49.899   7.504  -7.488  1.00  0.00    -0.002 A 
ATOM     13  C12 UNK     1      51.251   7.259  -7.740  1.00  0.00     0.014 A 
ATOM     14  C14 UNK     1      51.665   6.004  -8.188  1.00  0.00     0.001 A 
ATOM     15  C15 UNK     1      50.729   4.990  -8.385  1.00  0.00     0.000 A 
ATOM     16  C13 UNK     1      49.377   5.231  -8.135  1.00  0.00     0.001 A 
ATOM     17  C11 UNK     1      48.963   6.485  -7.687  1.00  0.00     0.014 A 
ENDBRANCH   5  12
BRANCH  10  18
ATOM     18  O4  UNK     1      49.593  11.916  -1.877  1.00  0.00    -0.361 OA
ATOM     19  H10 UNK     1      48.882  12.450  -1.486  1.00  0.00     0.217 HD
ENDBRANCH  10  18
BRANCH   7  20
ATOM     20  O2  UNK     1      47.789  13.501  -5.975  1.00  0.00    -0.360 OA
ATOM     21  H9  UNK     1      47.102  13.914  -5.430  1.00  0.00     0.217 HD
ENDBRANCH   7  20
TORSDOF 3
ENDMDL
MODEL 16
REMARK VINA RESULT:      -5.0     10.027     12.722
REMARK  3 active torsions:
REMARK  status: ('A' for Active; 'I' for Inactive)
REMARK    1  A    between atoms: O2_2  and  C6_10 
REMARK    2  A    between atoms: O4_4  and  C9_13 
REMARK    3  A    between atoms: C3_7  and  C5_9 
ROOT
ATOM      1  O1  UNK     1      47.787  10.154  -7.758  1.00  0.00    -0.309 OA
ATOM      2  O3  UNK     1      44.000  10.683  -9.165  1.00  0.00    -0.287 OA
ATOM      3  C1  UNK     1      45.947   9.344  -9.122  1.00  0.00     0.081 A 
ATOM      4  C2  UNK     1      47.235   9.224  -8.603  1.00  0.00     0.095 A 
ATOM      5  C3  UNK     1      47.030  11.263  -7.411  1.00  0.00     0.090 A 
ATOM      6  C4  UNK     1      45.138  10.514  -8.750  1.00  0.00     0.190 A 
ATOM      7  C6  UNK     1      45.437   8.367  -9.979  1.00  0.00     0.085 A 
ATOM      8  C7  UNK     1      45.778  11.487  -7.840  1.00  0.00     0.094 A 
ATOM      9  C8  UNK     1      48.023   8.123  -8.939  1.00  0.00     0.075 A 
ATOM     10  C9  UNK     1      47.517   7.144  -9.795  1.00  0.00     0.071 A 
ATOM     11  C10 UNK     1      46.227   7.266 -10.313  1.00  0.00     0.074 A 
ENDROOT
BRANCH   5  12
ATOM     12  C5  UNK     1      47.715  12.194  -6.494  1.00  0.00    -0.002 A 
ATOM     13  C12 UNK     1      47.478  12.125  -5.118  1.00  0.00     0.014 A 
ATOM     14  C14 UNK     1      48.125  13.006  -4.250  1.00  0.00     0.001 A 
ATOM     15  C15 UNK     1      49.011  13.957  -4.754  1.00  0.00     0.000 A 
ATOM     16  C13 UNK     1      49.250  14.029  -6.127  1.00  0.00     0.001 A 
ATOM     17  C11 UNK     1      48.604  13.149  -6.995  1.00  0.00     0.014 A 
ENDBRANCH   5  12
BRANCH  10  18
ATOM     18  O4  UNK     1      48.283   6.067 -10.124  1.00  0.00    -0.361 OA
ATOM     19  H10 UNK     1      47.759   5.258  -9.999  1.00  0.00     0.217 HD
ENDBRANCH  10  18
BRANCH   7  20
ATOM     20  O2  UNK     1      44.185   8.438 -10.511  1.00  0.00    -0.360 OA
ATOM     21  H9  UNK     1      43.721   7.594 -10.402  1.00  0.00     0.217 HD
ENDBRANCH   7  20
TORSDOF 3
ENDMDL
MODEL 17
REMARK VINA RESULT:      -5.0     11.084     12.915
REMARK  3 active torsions:
REMARK  status: ('A' for Active; 'I' for Inactive)
REMARK    1  A    between atoms: O2_2  and  C6_10 
REMARK    2  A    between atoms: O4_4  and  C9_13 
REMARK    3  A    between atoms: C3_7  and  C5_9 
ROOT
ATOM      1  O1  UNK     1      44.637  12.832 -10.764  1.00  0.00    -0.309 OA
ATOM      2  O3  UNK     1      41.229  11.436 -12.506  1.00  0.00    -0.287 OA
ATOM      3  C1  UNK     1      43.018  11.039 -11.013  1.00  0.00     0.081 A 
ATOM      4  C2  UNK     1      44.175  11.578 -10.453  1.00  0.00     0.095 A 
ATOM      5  C3  UNK     1      43.925  13.591 -11.680  1.00  0.00     0.090 A 
ATOM      6  C4  UNK     1      42.254  11.844 -11.978  1.00  0.00     0.190 A 
ATOM      7  C6  UNK     1      42.593   9.756 -10.660  1.00  0.00     0.085 A 
ATOM      8  C7  UNK     1      42.795  13.186 -12.281  1.00  0.00     0.094 A 
ATOM      9  C8  UNK     1      44.916  10.836  -9.534  1.00  0.00     0.075 A 
ATOM     10  C9  UNK     1      44.496   9.553  -9.179  1.00  0.00     0.071 A 
ATOM     11  C10 UNK     1      43.337   9.016  -9.740  1.00  0.00     0.074 A 
ENDROOT
BRANCH   5  12
ATOM     12  C5  UNK     1      44.506  14.924 -11.936  1.00  0.00    -0.002 A 
ATOM     13  C12 UNK     1      45.780  15.038 -12.498  1.00  0.00     0.014 A 
ATOM     14  C14 UNK     1      46.330  16.297 -12.739  1.00  0.00     0.001 A 
ATOM     15  C15 UNK     1      45.607  17.447 -12.421  1.00  0.00     0.000 A 
ATOM     16  C13 UNK     1      44.334  17.336 -11.859  1.00  0.00     0.001 A 
ATOM     17  C11 UNK     1      43.785  16.078 -11.618  1.00  0.00     0.014 A 
ENDBRANCH   5  12
BRANCH  10  18
ATOM     18  O4  UNK     1      45.217   8.826  -8.280  1.00  0.00    -0.361 OA
ATOM     19  H10 UNK     1      46.157   9.058  -8.369  1.00  0.00     0.217 HD
ENDBRANCH  10  18
BRANCH   7  20
ATOM     20  O2  UNK     1      41.470   9.186 -11.178  1.00  0.00    -0.360 OA
ATOM     21  H9  UNK     1      41.289   8.338 -10.745  1.00  0.00     0.217 HD
ENDBRANCH   7  20
TORSDOF 3
ENDMDL
MODEL 18
REMARK VINA RESULT:      -5.0     10.554     12.815
REMARK  3 active torsions:
REMARK  status: ('A' for Active; 'I' for Inactive)
REMARK    1  A    between atoms: O2_2  and  C6_10 
REMARK    2  A    between atoms: O4_4  and  C9_13 
REMARK    3  A    between atoms: C3_7  and  C5_9 
ROOT
ATOM      1  O1  UNK     1      49.037  13.332  -7.988  1.00  0.00    -0.309 OA
ATOM      2  O3  UNK     1      48.784   9.385  -7.010  1.00  0.00    -0.287 OA
ATOM      3  C1  UNK     1      48.770  11.631  -6.275  1.00  0.00     0.081 A 
ATOM      4  C2  UNK     1      48.863  12.961  -6.678  1.00  0.00     0.095 A 
ATOM      5  C3  UNK     1      49.132  12.337  -8.949  1.00  0.00     0.090 A 
ATOM      6  C4  UNK     1      48.860  10.573  -7.292  1.00  0.00     0.190 A 
ATOM      7  C6  UNK     1      48.592  11.312  -4.927  1.00  0.00     0.085 A 
ATOM      8  C7  UNK     1      49.050  11.023  -8.686  1.00  0.00     0.094 A 
ATOM      9  C8  UNK     1      48.778  13.984  -5.733  1.00  0.00     0.075 A 
ATOM     10  C9  UNK     1      48.601  13.670  -4.385  1.00  0.00     0.071 A 
ATOM     11  C10 UNK     1      48.508  12.337  -3.984  1.00  0.00     0.074 A 
ENDROOT
BRANCH   5  12
ATOM     12  C5  UNK     1      49.311  12.845 -10.323  1.00  0.00    -0.002 A 
ATOM     13  C12 UNK     1      48.212  12.960 -11.178  1.00  0.00     0.014 A 
ATOM     14  C14 UNK     1      48.381  13.439 -12.477  1.00  0.00     0.001 A 
ATOM     15  C15 UNK     1      49.649  13.805 -12.926  1.00  0.00     0.000 A 
ATOM     16  C13 UNK     1      50.749  13.692 -12.076  1.00  0.00     0.001 A 
ATOM     17  C11 UNK     1      50.581  13.213 -10.777  1.00  0.00     0.014 A 
ENDBRANCH   5  12
BRANCH  10  18
ATOM     18  O4  UNK     1      48.517  14.667  -3.461  1.00  0.00    -0.361 OA
ATOM     19  H10 UNK     1      48.951  15.462  -3.814  1.00  0.00     0.217 HD
ENDBRANCH  10  18
BRANCH   7  20
ATOM     20  O2  UNK     1      48.495  10.028  -4.483  1.00  0.00    -0.360 OA
ATOM     21  H9  UNK     1      49.089   9.882  -3.732  1.00  0.00     0.217 HD
ENDBRANCH   7  20
TORSDOF 3
ENDMDL
MODEL 19
REMARK VINA RESULT:      -5.0      9.863     12.147
REMARK  3 active torsions:
REMARK  status: ('A' for Active; 'I' for Inactive)
REMARK    1  A    between atoms: O2_2  and  C6_10 
REMARK    2  A    between atoms: O4_4  and  C9_13 
REMARK    3  A    between atoms: C3_7  and  C5_9 
ROOT
ATOM      1  O1  UNK     1      47.826  12.487  -7.716  1.00  0.00    -0.309 OA
ATOM      2  O3  UNK     1      48.934   8.856  -6.238  1.00  0.00    -0.287 OA
ATOM      3  C1  UNK     1      48.593  11.159  -5.833  1.00  0.00     0.081 A 
ATOM      4  C2  UNK     1      48.202  12.369  -6.402  1.00  0.00     0.095 A 
ATOM      5  C3  UNK     1      47.844  11.352  -8.513  1.00  0.00     0.090 A 
ATOM      6  C4  UNK     1      48.605   9.951  -6.672  1.00  0.00     0.190 A 
ATOM      7  C6  UNK     1      48.966  11.097  -4.488  1.00  0.00     0.085 A 
ATOM      8  C7  UNK     1      48.194  10.131  -8.080  1.00  0.00     0.094 A 
ATOM      9  C8  UNK     1      48.180  13.529  -5.627  1.00  0.00     0.075 A 
ATOM     10  C9  UNK     1      48.552  13.473  -4.283  1.00  0.00     0.071 A 
ATOM     11  C10 UNK     1      48.943  12.259  -3.716  1.00  0.00     0.074 A 
ENDROOT
BRANCH   5  12
ATOM     12  C5  UNK     1      47.416  11.589  -9.905  1.00  0.00    -0.002 A 
ATOM     13  C12 UNK     1      46.305  10.916 -10.422  1.00  0.00     0.014 A 
ATOM     14  C14 UNK     1      45.900  11.139 -11.738  1.00  0.00     0.001 A 
ATOM     15  C15 UNK     1      46.604  12.036 -12.542  1.00  0.00     0.000 A 
ATOM     16  C13 UNK     1      47.713  12.709 -12.030  1.00  0.00     0.001 A 
ATOM     17  C11 UNK     1      48.118  12.487 -10.714  1.00  0.00     0.014 A 
ENDBRANCH   5  12
BRANCH  10  18
ATOM     18  O4  UNK     1      48.530  14.603  -3.524  1.00  0.00    -0.361 OA
ATOM     19  H10 UNK     1      48.309  15.360  -4.093  1.00  0.00     0.217 HD
ENDBRANCH  10  18
BRANCH   7  20
ATOM     20  O2  UNK     1      49.355   9.940  -3.886  1.00  0.00    -0.360 OA
ATOM     21  H9  UNK     1      49.270   9.193  -4.498  1.00  0.00     0.217 HD
ENDBRANCH   7  20
TORSDOF 3
ENDMDL
MODEL 20
REMARK VINA RESULT:      -5.0     11.125     13.094
REMARK  3 active torsions:
REMARK  status: ('A' for Active; 'I' for Inactive)
REMARK    1  A    between atoms: O2_2  and  C6_10 
REMARK    2  A    between atoms: O4_4  and  C9_13 
REMARK    3  A    between atoms: C3_7  and  C5_9 
ROOT
ATOM      1  O1  UNK     1      50.507  14.166  -7.174  1.00  0.00    -0.309 OA
ATOM      2  O3  UNK     1      49.284  10.312  -6.671  1.00  0.00    -0.287 OA
ATOM      3  C1  UNK     1      49.161  12.558  -5.947  1.00  0.00     0.081 A 
ATOM      4  C2  UNK     1      49.619  13.855  -6.175  1.00  0.00     0.095 A 
ATOM      5  C3  UNK     1      50.973  13.143  -7.986  1.00  0.00     0.090 A 
ATOM      6  C4  UNK     1      49.646  11.472  -6.812  1.00  0.00     0.190 A 
ATOM      7  C6  UNK     1      48.257  12.299  -4.914  1.00  0.00     0.085 A 
ATOM      8  C7  UNK     1      50.601  11.858  -7.870  1.00  0.00     0.094 A 
ATOM      9  C8  UNK     1      49.174  14.903  -5.370  1.00  0.00     0.075 A 
ATOM     10  C9  UNK     1      48.270  14.649  -4.337  1.00  0.00     0.071 A 
ATOM     11  C10 UNK     1      47.813  13.350  -4.111  1.00  0.00     0.074 A 
ENDROOT
BRANCH   5  12
ATOM     12  C5  UNK     1      51.916  13.588  -9.030  1.00  0.00    -0.002 A 
ATOM     13  C12 UNK     1      52.679  14.743  -8.841  1.00  0.00     0.014 A 
ATOM     14  C14 UNK     1      53.571  15.165  -9.828  1.00  0.00     0.001 A 
ATOM     15  C15 UNK     1      53.703  14.432 -11.007  1.00  0.00     0.000 A 
ATOM     16  C13 UNK     1      52.942  13.278 -11.200  1.00  0.00     0.001 A 
ATOM     17  C11 UNK     1      52.051  12.857 -10.213  1.00  0.00     0.014 A 
ENDBRANCH   5  12
BRANCH  10  18
ATOM     18  O4  UNK     1      47.833  15.671  -3.550  1.00  0.00    -0.361 OA
ATOM     19  H10 UNK     1      48.404  15.732  -2.766  1.00  0.00     0.217 HD
ENDBRANCH  10  18
BRANCH   7  20
ATOM     20  O2  UNK     1      47.780  11.051  -4.652  1.00  0.00    -0.360 OA
ATOM     21  H9  UNK     1      47.746  10.894  -3.696  1.00  0.00     0.217 HD
ENDBRANCH   7  20
TORSDOF 3
ENDMDL
