MODEL 1
REMARK VINA RESULT:      -6.0      0.000      0.000
REMARK  3 active torsions:
REMARK  status: ('A' for Active; 'I' for Inactive)
REMARK    1  A    between atoms: O2_2  and  C6_10 
REMARK    2  A    between atoms: O4_4  and  C9_13 
REMARK    3  A    between atoms: C3_7  and  C5_9 
ROOT
ATOM      1  O1  UNK     1      38.799  22.244  11.000  1.00  0.00    -0.309 OA
ATOM      2  O3  UNK     1      37.505  19.826  14.013  1.00  0.00    -0.287 OA
ATOM      3  C1  UNK     1      39.141  20.264  12.365  1.00  0.00     0.081 A 
ATOM      4  C2  UNK     1      39.527  21.133  11.346  1.00  0.00     0.095 A 
ATOM      5  C3  UNK     1      37.626  22.507  11.691  1.00  0.00     0.090 A 
ATOM      6  C4  UNK     1      37.902  20.544  13.106  1.00  0.00     0.190 A 
ATOM      7  C6  UNK     1      39.921  19.147  12.675  1.00  0.00     0.085 A 
ATOM      8  C7  UNK     1      37.154  21.749  12.694  1.00  0.00     0.094 A 
ATOM      9  C8  UNK     1      40.699  20.891  10.629  1.00  0.00     0.075 A 
ATOM     10  C9  UNK     1      41.481  19.776  10.935  1.00  0.00     0.071 A 
ATOM     11  C10 UNK     1      41.093  18.907  11.956  1.00  0.00     0.074 A 
ENDROOT
BRANCH   5  12
ATOM     12  C5  UNK     1      36.927  23.727  11.244  1.00  0.00    -0.002 A 
ATOM     13  C12 UNK     1      37.329  24.979  11.717  1.00  0.00     0.014 A 
ATOM     14  C14 UNK     1      36.667  26.133  11.295  1.00  0.00     0.001 A 
ATOM     15  C15 UNK     1      35.604  26.040  10.398  1.00  0.00     0.000 A 
ATOM     16  C13 UNK     1      35.200  24.791   9.924  1.00  0.00     0.001 A 
ATOM     17  C11 UNK     1      35.861  23.638  10.345  1.00  0.00     0.014 A 
ENDBRANCH   5  12
BRANCH  10  18
ATOM     18  O4  UNK     1      42.626  19.538  10.238  1.00  0.00    -0.361 OA
ATOM     19  H10 UNK     1      42.430  18.924   9.510  1.00  0.00     0.217 HD
ENDBRANCH  10  18
BRANCH   7  20
ATOM     20  O2  UNK     1      39.587  18.269  13.661  1.00  0.00    -0.360 OA
ATOM     21  H9  UNK     1      39.017  18.697  14.318  1.00  0.00     0.217 HD
ENDBRANCH   7  20
TORSDOF 3
ENDMDL
MODEL 2
REMARK VINA RESULT:      -5.9      3.136      5.399
REMARK  3 active torsions:
REMARK  status: ('A' for Active; 'I' for Inactive)
REMARK    1  A    between atoms: O2_2  and  C6_10 
REMARK    2  A    between atoms: O4_4  and  C9_13 
REMARK    3  A    between atoms: C3_7  and  C5_9 
ROOT
ATOM      1  O1  UNK     1      42.678  20.867  10.636  1.00  0.00    -0.309 OA
ATOM      2  O3  UNK     1      43.697  17.187  12.058  1.00  0.00    -0.287 OA
ATOM      3  C1  UNK     1      44.416  19.256  11.169  1.00  0.00     0.081 A 
ATOM      4  C2  UNK     1      43.998  20.498  10.695  1.00  0.00     0.095 A 
ATOM      5  C3  UNK     1      41.719  19.959  11.058  1.00  0.00     0.090 A 
ATOM      6  C4  UNK     1      43.402  18.294  11.627  1.00  0.00     0.190 A 
ATOM      7  C6  UNK     1      45.774  18.934  11.208  1.00  0.00     0.085 A 
ATOM      8  C7  UNK     1      41.995  18.737  11.540  1.00  0.00     0.094 A 
ATOM      9  C8  UNK     1      44.939  21.429  10.257  1.00  0.00     0.075 A 
ATOM     10  C9  UNK     1      46.298  21.112  10.293  1.00  0.00     0.071 A 
ATOM     11  C10 UNK     1      46.714  19.868  10.769  1.00  0.00     0.074 A 
ENDROOT
BRANCH   5  12
ATOM     12  C5  UNK     1      40.333  20.459  10.958  1.00  0.00    -0.002 A 
ATOM     13  C12 UNK     1      39.444  20.280  12.021  1.00  0.00     0.014 A 
ATOM     14  C14 UNK     1      38.134  20.751  11.926  1.00  0.00     0.001 A 
ATOM     15  C15 UNK     1      37.710  21.404  10.769  1.00  0.00     0.000 A 
ATOM     16  C13 UNK     1      38.595  21.584   9.705  1.00  0.00     0.001 A 
ATOM     17  C11 UNK     1      39.904  21.113   9.800  1.00  0.00     0.014 A 
ENDBRANCH   5  12
BRANCH  10  18
ATOM     18  O4  UNK     1      47.219  22.020   9.867  1.00  0.00    -0.361 OA
ATOM     19  H10 UNK     1      47.782  21.604   9.192  1.00  0.00     0.217 HD
ENDBRANCH  10  18
BRANCH   7  20
ATOM     20  O2  UNK     1      46.232  17.735  11.662  1.00  0.00    -0.360 OA
ATOM     21  H9  UNK     1      45.809  17.506  12.504  1.00  0.00     0.217 HD
ENDBRANCH   7  20
TORSDOF 3
ENDMDL
MODEL 3
REMARK VINA RESULT:      -5.9      3.131      5.416
REMARK  3 active torsions:
REMARK  status: ('A' for Active; 'I' for Inactive)
REMARK    1  A    between atoms: O2_2  and  C6_10 
REMARK    2  A    between atoms: O4_4  and  C9_13 
REMARK    3  A    between atoms: C3_7  and  C5_9 
ROOT
ATOM      1  O1  UNK     1      42.669  20.868  10.629  1.00  0.00    -0.309 OA
ATOM      2  O3  UNK     1      43.689  17.193  12.060  1.00  0.00    -0.287 OA
ATOM      3  C1  UNK     1      44.408  19.259  11.166  1.00  0.00     0.081 A 
ATOM      4  C2  UNK     1      43.990  20.500  10.689  1.00  0.00     0.095 A 
ATOM      5  C3  UNK     1      41.711  19.962  11.055  1.00  0.00     0.090 A 
ATOM      6  C4  UNK     1      43.395  18.298  11.627  1.00  0.00     0.190 A 
ATOM      7  C6  UNK     1      45.766  18.937  11.204  1.00  0.00     0.085 A 
ATOM      8  C7  UNK     1      41.988  18.741  11.540  1.00  0.00     0.094 A 
ATOM      9  C8  UNK     1      44.931  21.430  10.247  1.00  0.00     0.075 A 
ATOM     10  C9  UNK     1      46.289  21.113  10.283  1.00  0.00     0.071 A 
ATOM     11  C10 UNK     1      46.705  19.869  10.761  1.00  0.00     0.074 A 
ENDROOT
BRANCH   5  12
ATOM     12  C5  UNK     1      40.325  20.462  10.954  1.00  0.00    -0.002 A 
ATOM     13  C12 UNK     1      39.896  21.109   9.793  1.00  0.00     0.014 A 
ATOM     14  C14 UNK     1      38.586  21.582   9.697  1.00  0.00     0.001 A 
ATOM     15  C15 UNK     1      37.703  21.408  10.762  1.00  0.00     0.000 A 
ATOM     16  C13 UNK     1      38.128  20.762  11.923  1.00  0.00     0.001 A 
ATOM     17  C11 UNK     1      39.437  20.290  12.019  1.00  0.00     0.014 A 
ENDBRANCH   5  12
BRANCH  10  18
ATOM     18  O4  UNK     1      47.210  22.019   9.853  1.00  0.00    -0.361 OA
ATOM     19  H10 UNK     1      47.350  22.681  10.550  1.00  0.00     0.217 HD
ENDBRANCH  10  18
BRANCH   7  20
ATOM     20  O2  UNK     1      46.224  17.739  11.661  1.00  0.00    -0.360 OA
ATOM     21  H9  UNK     1      47.192  17.705  11.616  1.00  0.00     0.217 HD
ENDBRANCH   7  20
TORSDOF 3
ENDMDL
MODEL 4
REMARK VINA RESULT:      -5.8      3.828      5.297
REMARK  3 active torsions:
REMARK  status: ('A' for Active; 'I' for Inactive)
REMARK    1  A    between atoms: O2_2  and  C6_10 
REMARK    2  A    between atoms: O4_4  and  C9_13 
REMARK    3  A    between atoms: C3_7  and  C5_9 
ROOT
ATOM      1  O1  UNK     1      41.556  22.069  12.254  1.00  0.00    -0.309 OA
ATOM      2  O3  UNK     1      44.101  19.381  10.552  1.00  0.00    -0.287 OA
ATOM      3  C1  UNK     1      42.168  19.752  11.860  1.00  0.00     0.081 A 
ATOM      4  C2  UNK     1      41.337  20.723  12.414  1.00  0.00     0.095 A 
ATOM      5  C3  UNK     1      42.656  22.476  11.516  1.00  0.00     0.090 A 
ATOM      6  C4  UNK     1      43.332  20.179  11.069  1.00  0.00     0.190 A 
ATOM      7  C6  UNK     1      41.897  18.395  12.055  1.00  0.00     0.085 A 
ATOM      8  C7  UNK     1      43.525  21.637  10.929  1.00  0.00     0.094 A 
ATOM      9  C8  UNK     1      40.226  20.344  13.167  1.00  0.00     0.075 A 
ATOM     10  C9  UNK     1      39.951  18.991  13.364  1.00  0.00     0.071 A 
ATOM     11  C10 UNK     1      40.785  18.019  12.809  1.00  0.00     0.074 A 
ENDROOT
BRANCH   5  12
ATOM     12  C5  UNK     1      42.794  23.941  11.402  1.00  0.00    -0.002 A 
ATOM     13  C12 UNK     1      43.611  24.494  10.412  1.00  0.00     0.014 A 
ATOM     14  C14 UNK     1      43.742  25.879  10.303  1.00  0.00     0.001 A 
ATOM     15  C15 UNK     1      43.056  26.716  11.184  1.00  0.00     0.000 A 
ATOM     16  C13 UNK     1      42.240  26.167  12.174  1.00  0.00     0.001 A 
ATOM     17  C11 UNK     1      42.109  24.783  12.282  1.00  0.00     0.014 A 
ENDBRANCH   5  12
BRANCH  10  18
ATOM     18  O4  UNK     1      38.867  18.617  14.098  1.00  0.00    -0.361 OA
ATOM     19  H10 UNK     1      38.062  18.781  13.578  1.00  0.00     0.217 HD
ENDBRANCH  10  18
BRANCH   7  20
ATOM     20  O2  UNK     1      42.678  17.408  11.535  1.00  0.00    -0.360 OA
ATOM     21  H9  UNK     1      43.138  16.931  12.242  1.00  0.00     0.217 HD
ENDBRANCH   7  20
TORSDOF 3
ENDMDL
MODEL 5
REMARK VINA RESULT:      -5.8      3.118      6.654
REMARK  3 active torsions:
REMARK  status: ('A' for Active; 'I' for Inactive)
REMARK    1  A    between atoms: O2_2  and  C6_10 
REMARK    2  A    between atoms: O4_4  and  C9_13 
REMARK    3  A    between atoms: C3_7  and  C5_9 
ROOT
ATOM      1  O1  UNK     1      36.437  23.834  10.510  1.00  0.00    -0.309 OA
ATOM      2  O3  UNK     1      34.285  22.823  13.819  1.00  0.00    -0.287 OA
ATOM      3  C1  UNK     1      34.439  24.135  11.860  1.00  0.00     0.081 A 
ATOM      4  C2  UNK     1      35.225  24.434  10.748  1.00  0.00     0.095 A 
ATOM      5  C3  UNK     1      36.900  22.898  11.421  1.00  0.00     0.090 A 
ATOM      6  C4  UNK     1      34.923  23.136  12.823  1.00  0.00     0.190 A 
ATOM      7  C6  UNK     1      33.213  24.777  12.051  1.00  0.00     0.085 A 
ATOM      8  C7  UNK     1      36.233  22.522  12.524  1.00  0.00     0.094 A 
ATOM      9  C8  UNK     1      34.788  25.377   9.818  1.00  0.00     0.075 A 
ATOM     10  C9  UNK     1      33.564  26.020  10.005  1.00  0.00     0.071 A 
ATOM     11  C10 UNK     1      32.779  25.720  11.119  1.00  0.00     0.074 A 
ENDROOT
BRANCH   5  12
ATOM     12  C5  UNK     1      38.208  22.311  11.067  1.00  0.00    -0.002 A 
ATOM     13  C12 UNK     1      39.326  22.554  11.869  1.00  0.00     0.014 A 
ATOM     14  C14 UNK     1      40.562  22.000  11.535  1.00  0.00     0.001 A 
ATOM     15  C15 UNK     1      40.684  21.202  10.397  1.00  0.00     0.000 A 
ATOM     16  C13 UNK     1      39.570  20.959   9.594  1.00  0.00     0.001 A 
ATOM     17  C11 UNK     1      38.334  21.511   9.928  1.00  0.00     0.014 A 
ENDBRANCH   5  12
BRANCH  10  18
ATOM     18  O4  UNK     1      33.134  26.941   9.098  1.00  0.00    -0.361 OA
ATOM     19  H10 UNK     1      33.802  27.643   9.022  1.00  0.00     0.217 HD
ENDBRANCH  10  18
BRANCH   7  20
ATOM     20  O2  UNK     1      32.409  24.520  13.120  1.00  0.00    -0.360 OA
ATOM     21  H9  UNK     1      31.820  25.270  13.290  1.00  0.00     0.217 HD
ENDBRANCH   7  20
TORSDOF 3
ENDMDL
MODEL 6
REMARK VINA RESULT:      -5.7      3.683      4.769
REMARK  3 active torsions:
REMARK  status: ('A' for Active; 'I' for Inactive)
REMARK    1  A    between atoms: O2_2  and  C6_10 
REMARK    2  A    between atoms: O4_4  and  C9_13 
REMARK    3  A    between atoms: C3_7  and  C5_9 
ROOT
ATOM      1  O1  UNK     1      43.307  21.712  11.555  1.00  0.00    -0.309 OA
ATOM      2  O3  UNK     1      39.508  20.438  12.291  1.00  0.00    -0.287 OA
ATOM      3  C1  UNK     1      41.790  19.878  12.040  1.00  0.00     0.081 A 
ATOM      4  C2  UNK     1      43.064  20.381  11.783  1.00  0.00     0.095 A 
ATOM      5  C3  UNK     1      42.236  22.592  11.574  1.00  0.00     0.090 A 
ATOM      6  C4  UNK     1      40.652  20.809  12.070  1.00  0.00     0.190 A 
ATOM      7  C6  UNK     1      41.601  18.513  12.265  1.00  0.00     0.085 A 
ATOM      8  C7  UNK     1      40.966  22.231  11.815  1.00  0.00     0.094 A 
ATOM      9  C8  UNK     1      44.161  19.519  11.752  1.00  0.00     0.075 A 
ATOM     10  C9  UNK     1      43.976  18.154  11.976  1.00  0.00     0.071 A 
ATOM     11  C10 UNK     1      42.699  17.653  12.233  1.00  0.00     0.074 A 
ENDROOT
BRANCH   5  12
ATOM     12  C5  UNK     1      42.610  23.998  11.323  1.00  0.00    -0.002 A 
ATOM     13  C12 UNK     1      43.420  24.325  10.233  1.00  0.00     0.014 A 
ATOM     14  C14 UNK     1      43.774  25.654   9.996  1.00  0.00     0.001 A 
ATOM     15  C15 UNK     1      43.318  26.659  10.848  1.00  0.00     0.000 A 
ATOM     16  C13 UNK     1      42.509  26.336  11.937  1.00  0.00     0.001 A 
ATOM     17  C11 UNK     1      42.155  25.008  12.174  1.00  0.00     0.014 A 
ENDBRANCH   5  12
BRANCH  10  18
ATOM     18  O4  UNK     1      45.045  17.310  11.947  1.00  0.00    -0.361 OA
ATOM     19  H10 UNK     1      44.773  16.472  11.537  1.00  0.00     0.217 HD
ENDBRANCH  10  18
BRANCH   7  20
ATOM     20  O2  UNK     1      40.377  17.973  12.521  1.00  0.00    -0.360 OA
ATOM     21  H9  UNK     1      40.281  17.121  12.070  1.00  0.00     0.217 HD
ENDBRANCH   7  20
TORSDOF 3
ENDMDL
MODEL 7
REMARK VINA RESULT:      -5.7      3.576      5.753
REMARK  3 active torsions:
REMARK  status: ('A' for Active; 'I' for Inactive)
REMARK    1  A    between atoms: O2_2  and  C6_10 
REMARK    2  A    between atoms: O4_4  and  C9_13 
REMARK    3  A    between atoms: C3_7  and  C5_9 
ROOT
ATOM      1  O1  UNK     1      42.702  20.997  10.779  1.00  0.00    -0.309 OA
ATOM      2  O3  UNK     1      44.674  24.550  11.075  1.00  0.00    -0.287 OA
ATOM      3  C1  UNK     1      44.810  22.196  10.910  1.00  0.00     0.081 A 
ATOM      4  C2  UNK     1      44.074  21.017  10.810  1.00  0.00     0.095 A 
ATOM      5  C3  UNK     1      42.021  22.201  10.860  1.00  0.00     0.090 A 
ATOM      6  C4  UNK     1      44.092  23.477  10.987  1.00  0.00     0.190 A 
ATOM      7  C6  UNK     1      46.206  22.157  10.937  1.00  0.00     0.085 A 
ATOM      8  C7  UNK     1      42.617  23.401  10.954  1.00  0.00     0.094 A 
ATOM      9  C8  UNK     1      44.731  19.789  10.733  1.00  0.00     0.075 A 
ATOM     10  C9  UNK     1      46.125  19.745  10.759  1.00  0.00     0.071 A 
ATOM     11  C10 UNK     1      46.861  20.927  10.860  1.00  0.00     0.074 A 
ENDROOT
BRANCH   5  12
ATOM     12  C5  UNK     1      40.552  22.066  10.813  1.00  0.00    -0.002 A 
ATOM     13  C12 UNK     1      39.947  21.358   9.771  1.00  0.00     0.014 A 
ATOM     14  C14 UNK     1      38.558  21.230   9.724  1.00  0.00     0.001 A 
ATOM     15  C15 UNK     1      37.771  21.808  10.720  1.00  0.00     0.000 A 
ATOM     16  C13 UNK     1      38.372  22.515  11.762  1.00  0.00     0.001 A 
ATOM     17  C11 UNK     1      39.760  22.643  11.808  1.00  0.00     0.014 A 
ENDBRANCH   5  12
BRANCH  10  18
ATOM     18  O4  UNK     1      46.769  18.548  10.683  1.00  0.00    -0.361 OA
ATOM     19  H10 UNK     1      47.056  18.402   9.766  1.00  0.00     0.217 HD
ENDBRANCH  10  18
BRANCH   7  20
ATOM     20  O2  UNK     1      46.970  23.281  11.034  1.00  0.00    -0.360 OA
ATOM     21  H9  UNK     1      47.651  23.171  11.714  1.00  0.00     0.217 HD
ENDBRANCH   7  20
TORSDOF 3
ENDMDL
MODEL 8
REMARK VINA RESULT:      -5.6      1.857      4.005
REMARK  3 active torsions:
REMARK  status: ('A' for Active; 'I' for Inactive)
REMARK    1  A    between atoms: O2_2  and  C6_10 
REMARK    2  A    between atoms: O4_4  and  C9_13 
REMARK    3  A    between atoms: C3_7  and  C5_9 
ROOT
ATOM      1  O1  UNK     1      39.885  19.853  12.150  1.00  0.00    -0.309 OA
ATOM      2  O3  UNK     1      43.527  20.567  10.470  1.00  0.00    -0.287 OA
ATOM      3  C1  UNK     1      42.163  19.116  11.743  1.00  0.00     0.081 A 
ATOM      4  C2  UNK     1      40.895  18.934  12.290  1.00  0.00     0.095 A 
ATOM      5  C3  UNK     1      40.143  21.015  11.440  1.00  0.00     0.090 A 
ATOM      6  C4  UNK     1      42.438  20.343  10.980  1.00  0.00     0.190 A 
ATOM      7  C6  UNK     1      43.154  18.146  11.916  1.00  0.00     0.085 A 
ATOM      8  C7  UNK     1      41.320  21.301  10.861  1.00  0.00     0.094 A 
ATOM      9  C8  UNK     1      40.607  17.778  13.016  1.00  0.00     0.075 A 
ATOM     10  C9  UNK     1      41.594  16.807  13.193  1.00  0.00     0.071 A 
ATOM     11  C10 UNK     1      42.864  16.991  12.643  1.00  0.00     0.074 A 
ENDROOT
BRANCH   5  12
ATOM     12  C5  UNK     1      38.988  21.930  11.345  1.00  0.00    -0.002 A 
ATOM     13  C12 UNK     1      38.009  21.724  10.369  1.00  0.00     0.014 A 
ATOM     14  C14 UNK     1      36.917  22.589  10.279  1.00  0.00     0.001 A 
ATOM     15  C15 UNK     1      36.801  23.661  11.164  1.00  0.00     0.000 A 
ATOM     16  C13 UNK     1      37.777  23.868  12.139  1.00  0.00     0.001 A 
ATOM     17  C11 UNK     1      38.868  23.004  12.230  1.00  0.00     0.014 A 
ENDBRANCH   5  12
BRANCH  10  18
ATOM     18  O4  UNK     1      41.316  15.677  13.900  1.00  0.00    -0.361 OA
ATOM     19  H10 UNK     1      42.096  15.435  14.427  1.00  0.00     0.217 HD
ENDBRANCH  10  18
BRANCH   7  20
ATOM     20  O2  UNK     1      44.407  18.277  11.401  1.00  0.00    -0.360 OA
ATOM     21  H9  UNK     1      44.449  17.900  10.509  1.00  0.00     0.217 HD
ENDBRANCH   7  20
TORSDOF 3
ENDMDL
MODEL 9
REMARK VINA RESULT:      -5.6      1.864      3.853
REMARK  3 active torsions:
REMARK  status: ('A' for Active; 'I' for Inactive)
REMARK    1  A    between atoms: O2_2  and  C6_10 
REMARK    2  A    between atoms: O4_4  and  C9_13 
REMARK    3  A    between atoms: C3_7  and  C5_9 
ROOT
ATOM      1  O1  UNK     1      39.893  19.871  12.144  1.00  0.00    -0.309 OA
ATOM      2  O3  UNK     1      43.541  20.587  10.477  1.00  0.00    -0.287 OA
ATOM      3  C1  UNK     1      42.171  19.132  11.738  1.00  0.00     0.081 A 
ATOM      4  C2  UNK     1      40.901  18.950  12.282  1.00  0.00     0.095 A 
ATOM      5  C3  UNK     1      40.155  21.036  11.440  1.00  0.00     0.090 A 
ATOM      6  C4  UNK     1      42.450  20.362  10.983  1.00  0.00     0.190 A 
ATOM      7  C6  UNK     1      43.159  18.160  11.910  1.00  0.00     0.085 A 
ATOM      8  C7  UNK     1      41.334  21.323  10.866  1.00  0.00     0.094 A 
ATOM      9  C8  UNK     1      40.609  17.791  13.001  1.00  0.00     0.075 A 
ATOM     10  C9  UNK     1      41.593  16.817  13.175  1.00  0.00     0.071 A 
ATOM     11  C10 UNK     1      42.865  17.001  12.630  1.00  0.00     0.074 A 
ENDROOT
BRANCH   5  12
ATOM     12  C5  UNK     1      39.002  21.954  11.347  1.00  0.00    -0.002 A 
ATOM     13  C12 UNK     1      38.898  23.040  12.220  1.00  0.00     0.014 A 
ATOM     14  C14 UNK     1      37.809  23.908  12.133  1.00  0.00     0.001 A 
ATOM     15  C15 UNK     1      36.820  23.692  11.173  1.00  0.00     0.000 A 
ATOM     16  C13 UNK     1      36.921  22.608  10.300  1.00  0.00     0.001 A 
ATOM     17  C11 UNK     1      38.010  21.741  10.387  1.00  0.00     0.014 A 
ENDBRANCH   5  12
BRANCH  10  18
ATOM     18  O4  UNK     1      41.312  15.684  13.876  1.00  0.00    -0.361 OA
ATOM     19  H10 UNK     1      41.062  14.981  13.252  1.00  0.00     0.217 HD
ENDBRANCH  10  18
BRANCH   7  20
ATOM     20  O2  UNK     1      44.414  18.291  11.398  1.00  0.00    -0.360 OA
ATOM     21  H9  UNK     1      44.863  19.056  11.789  1.00  0.00     0.217 HD
ENDBRANCH   7  20
TORSDOF 3
ENDMDL
MODEL 10
REMARK VINA RESULT:      -5.5      3.288      4.337
REMARK  3 active torsions:
REMARK  status: ('A' for Active; 'I' for Inactive)
REMARK    1  A    between atoms: O2_2  and  C6_10 
REMARK    2  A    between atoms: O4_4  and  C9_13 
REMARK    3  A    between atoms: C3_7  and  C5_9 
ROOT
ATOM      1  O1  UNK     1      42.832  23.479  11.471  1.00  0.00    -0.309 OA
ATOM      2  O3  UNK     1      40.183  20.386  11.353  1.00  0.00    -0.287 OA
ATOM      3  C1  UNK     1      42.399  21.133  11.014  1.00  0.00     0.081 A 
ATOM      4  C2  UNK     1      43.252  22.233  11.078  1.00  0.00     0.095 A 
ATOM      5  C3  UNK     1      41.499  23.650  11.811  1.00  0.00     0.090 A 
ATOM      6  C4  UNK     1      40.987  21.308  11.383  1.00  0.00     0.190 A 
ATOM      7  C6  UNK     1      42.882  19.887  10.607  1.00  0.00     0.085 A 
ATOM      8  C7  UNK     1      40.584  22.668  11.796  1.00  0.00     0.094 A 
ATOM      9  C8  UNK     1      44.597  22.094  10.735  1.00  0.00     0.075 A 
ATOM     10  C9  UNK     1      45.084  20.851  10.327  1.00  0.00     0.071 A 
ATOM     11  C10 UNK     1      44.228  19.751  10.264  1.00  0.00     0.074 A 
ENDROOT
BRANCH   5  12
ATOM     12  C5  UNK     1      41.156  25.025  12.224  1.00  0.00    -0.002 A 
ATOM     13  C12 UNK     1      42.141  26.017  12.248  1.00  0.00     0.014 A 
ATOM     14  C14 UNK     1      41.817  27.316  12.639  1.00  0.00     0.001 A 
ATOM     15  C15 UNK     1      40.509  27.629  13.006  1.00  0.00     0.000 A 
ATOM     16  C13 UNK     1      39.523  26.641  12.984  1.00  0.00     0.001 A 
ATOM     17  C11 UNK     1      39.847  25.342  12.593  1.00  0.00     0.014 A 
ENDBRANCH   5  12
BRANCH  10  18
ATOM     18  O4  UNK     1      46.397  20.712   9.993  1.00  0.00    -0.361 OA
ATOM     19  H10 UNK     1      46.568  19.781   9.770  1.00  0.00     0.217 HD
ENDBRANCH  10  18
BRANCH   7  20
ATOM     20  O2  UNK     1      42.090  18.783  10.529  1.00  0.00    -0.360 OA
ATOM     21  H9  UNK     1      42.302  18.161  11.241  1.00  0.00     0.217 HD
ENDBRANCH   7  20
TORSDOF 3
ENDMDL
MODEL 11
REMARK VINA RESULT:      -5.5      2.759      4.547
REMARK  3 active torsions:
REMARK  status: ('A' for Active; 'I' for Inactive)
REMARK    1  A    between atoms: O2_2  and  C6_10 
REMARK    2  A    between atoms: O4_4  and  C9_13 
REMARK    3  A    between atoms: C3_7  and  C5_9 
ROOT
ATOM      1  O1  UNK     1      41.993  22.189  10.952  1.00  0.00    -0.309 OA
ATOM      2  O3  UNK     1      42.665  18.181  11.242  1.00  0.00    -0.287 OA
ATOM      3  C1  UNK     1      43.579  20.351  11.038  1.00  0.00     0.081 A 
ATOM      4  C2  UNK     1      43.278  21.708  10.944  1.00  0.00     0.095 A 
ATOM      5  C3  UNK     1      40.949  21.282  11.051  1.00  0.00     0.090 A 
ATOM      6  C4  UNK     1      42.475  19.386  11.153  1.00  0.00     0.190 A 
ATOM      7  C6  UNK     1      44.907  19.918  11.025  1.00  0.00     0.085 A 
ATOM      8  C7  UNK     1      41.110  19.952  11.155  1.00  0.00     0.094 A 
ATOM      9  C8  UNK     1      44.307  22.644  10.836  1.00  0.00     0.075 A 
ATOM     10  C9  UNK     1      45.635  22.216  10.822  1.00  0.00     0.071 A 
ATOM     11  C10 UNK     1      45.934  20.856  10.917  1.00  0.00     0.074 A 
ENDROOT
BRANCH   5  12
ATOM     12  C5  UNK     1      39.611  21.904  11.058  1.00  0.00    -0.002 A 
ATOM     13  C12 UNK     1      38.650  21.511  10.123  1.00  0.00     0.014 A 
ATOM     14  C14 UNK     1      37.385  22.099  10.128  1.00  0.00     0.001 A 
ATOM     15  C15 UNK     1      37.076  23.082  11.068  1.00  0.00     0.000 A 
ATOM     16  C13 UNK     1      38.034  23.478  12.003  1.00  0.00     0.001 A 
ATOM     17  C11 UNK     1      39.298  22.889  11.998  1.00  0.00     0.014 A 
ENDBRANCH   5  12
BRANCH  10  18
ATOM     18  O4  UNK     1      46.642  23.128  10.718  1.00  0.00    -0.361 OA
ATOM     19  H10 UNK     1      46.267  24.021  10.796  1.00  0.00     0.217 HD
ENDBRANCH  10  18
BRANCH   7  20
ATOM     20  O2  UNK     1      45.251  18.603  11.115  1.00  0.00    -0.360 OA
ATOM     21  H9  UNK     1      44.768  18.174  11.838  1.00  0.00     0.217 HD
ENDBRANCH   7  20
TORSDOF 3
ENDMDL
MODEL 12
REMARK VINA RESULT:      -5.5      4.866      7.844
REMARK  3 active torsions:
REMARK  status: ('A' for Active; 'I' for Inactive)
REMARK    1  A    between atoms: O2_2  and  C6_10 
REMARK    2  A    between atoms: O4_4  and  C9_13 
REMARK    3  A    between atoms: C3_7  and  C5_9 
ROOT
ATOM      1  O1  UNK     1      44.316  18.504  11.662  1.00  0.00    -0.309 OA
ATOM      2  O3  UNK     1      40.998  20.701  10.791  1.00  0.00    -0.287 OA
ATOM      3  C1  UNK     1      41.940  18.893  11.986  1.00  0.00     0.081 A 
ATOM      4  C2  UNK     1      43.113  18.185  12.241  1.00  0.00     0.095 A 
ATOM      5  C3  UNK     1      44.363  19.573  10.781  1.00  0.00     0.090 A 
ATOM      6  C4  UNK     1      41.987  20.034  11.059  1.00  0.00     0.190 A 
ATOM      7  C6  UNK     1      40.743  18.524  12.603  1.00  0.00     0.085 A 
ATOM      8  C7  UNK     1      43.304  20.335  10.461  1.00  0.00     0.094 A 
ATOM      9  C8  UNK     1      43.096  17.100  13.118  1.00  0.00     0.075 A 
ATOM     10  C9  UNK     1      41.902  16.727  13.736  1.00  0.00     0.071 A 
ATOM     11  C10 UNK     1      40.729  17.438  13.480  1.00  0.00     0.074 A 
ENDROOT
BRANCH   5  12
ATOM     12  C5  UNK     1      45.704  19.833  10.223  1.00  0.00    -0.002 A 
ATOM     13  C12 UNK     1      45.883  20.834   9.265  1.00  0.00     0.014 A 
ATOM     14  C14 UNK     1      47.151  21.080   8.736  1.00  0.00     0.001 A 
ATOM     15  C15 UNK     1      48.243  20.326   9.163  1.00  0.00     0.000 A 
ATOM     16  C13 UNK     1      48.068  19.325  10.119  1.00  0.00     0.001 A 
ATOM     17  C11 UNK     1      46.801  19.080  10.648  1.00  0.00     0.014 A 
ENDBRANCH   5  12
BRANCH  10  18
ATOM     18  O4  UNK     1      41.883  15.669  14.594  1.00  0.00    -0.361 OA
ATOM     19  H10 UNK     1      42.477  15.858  15.340  1.00  0.00     0.217 HD
ENDBRANCH  10  18
BRANCH   7  20
ATOM     20  O2  UNK     1      39.572  19.184  12.388  1.00  0.00    -0.360 OA
ATOM     21  H9  UNK     1      39.153  18.875  11.570  1.00  0.00     0.217 HD
ENDBRANCH   7  20
TORSDOF 3
ENDMDL
MODEL 13
REMARK VINA RESULT:      -5.5      3.576      5.267
REMARK  3 active torsions:
REMARK  status: ('A' for Active; 'I' for Inactive)
REMARK    1  A    between atoms: O2_2  and  C6_10 
REMARK    2  A    between atoms: O4_4  and  C9_13 
REMARK    3  A    between atoms: C3_7  and  C5_9 
ROOT
ATOM      1  O1  UNK     1      41.615  23.298  11.656  1.00  0.00    -0.309 OA
ATOM      2  O3  UNK     1      45.633  23.946  11.477  1.00  0.00    -0.287 OA
ATOM      3  C1  UNK     1      43.840  22.428  11.222  1.00  0.00     0.081 A 
ATOM      4  C2  UNK     1      42.458  22.275  11.302  1.00  0.00     0.095 A 
ATOM      5  C3  UNK     1      42.166  24.534  11.955  1.00  0.00     0.090 A 
ATOM      6  C4  UNK     1      44.428  23.740  11.529  1.00  0.00     0.190 A 
ATOM      7  C6  UNK     1      44.651  21.350  10.855  1.00  0.00     0.085 A 
ATOM      8  C7  UNK     1      43.480  24.807  11.908  1.00  0.00     0.094 A 
ATOM      9  C8  UNK     1      41.874  21.041  11.014  1.00  0.00     0.075 A 
ATOM     10  C9  UNK     1      42.680  19.962  10.647  1.00  0.00     0.071 A 
ATOM     11  C10 UNK     1      44.065  20.117  10.568  1.00  0.00     0.074 A 
ENDROOT
BRANCH   5  12
ATOM     12  C5  UNK     1      41.172  25.563  12.317  1.00  0.00    -0.002 A 
ATOM     13  C12 UNK     1      39.855  25.195  12.608  1.00  0.00     0.014 A 
ATOM     14  C14 UNK     1      38.915  26.168  12.950  1.00  0.00     0.001 A 
ATOM     15  C15 UNK     1      39.287  27.511  13.003  1.00  0.00     0.000 A 
ATOM     16  C13 UNK     1      40.601  27.882  12.713  1.00  0.00     0.001 A 
ATOM     17  C11 UNK     1      41.541  26.910  12.371  1.00  0.00     0.014 A 
ENDBRANCH   5  12
BRANCH  10  18
ATOM     18  O4  UNK     1      42.113  18.756  10.364  1.00  0.00    -0.361 OA
ATOM     19  H10 UNK     1      41.341  18.628  10.940  1.00  0.00     0.217 HD
ENDBRANCH  10  18
BRANCH   7  20
ATOM     20  O2  UNK     1      46.006  21.449  10.762  1.00  0.00    -0.360 OA
ATOM     21  H9  UNK     1      46.434  20.830  11.372  1.00  0.00     0.217 HD
ENDBRANCH   7  20
TORSDOF 3
ENDMDL
MODEL 14
REMARK VINA RESULT:      -5.5      2.979      7.166
REMARK  3 active torsions:
REMARK  status: ('A' for Active; 'I' for Inactive)
REMARK    1  A    between atoms: O2_2  and  C6_10 
REMARK    2  A    between atoms: O4_4  and  C9_13 
REMARK    3  A    between atoms: C3_7  and  C5_9 
ROOT
ATOM      1  O1  UNK     1      42.576  20.294  10.466  1.00  0.00    -0.309 OA
ATOM      2  O3  UNK     1      41.419  18.441  13.905  1.00  0.00    -0.287 OA
ATOM      3  C1  UNK     1      40.801  19.738  12.028  1.00  0.00     0.081 A 
ATOM      4  C2  UNK     1      41.264  20.348  10.864  1.00  0.00     0.095 A 
ATOM      5  C3  UNK     1      43.480  19.609  11.263  1.00  0.00     0.090 A 
ATOM      6  C4  UNK     1      41.755  19.002  12.871  1.00  0.00     0.190 A 
ATOM      7  C6  UNK     1      39.453  19.825  12.384  1.00  0.00     0.085 A 
ATOM      8  C7  UNK     1      43.156  18.976  12.402  1.00  0.00     0.094 A 
ATOM      9  C8  UNK     1      40.379  21.050  10.045  1.00  0.00     0.075 A 
ATOM     10  C9  UNK     1      39.032  21.139  10.397  1.00  0.00     0.071 A 
ATOM     11  C10 UNK     1      38.570  20.527  11.564  1.00  0.00     0.074 A 
ENDROOT
BRANCH   5  12
ATOM     12  C5  UNK     1      44.861  19.608  10.740  1.00  0.00    -0.002 A 
ATOM     13  C12 UNK     1      45.815  18.743  11.282  1.00  0.00     0.014 A 
ATOM     14  C14 UNK     1      47.121  18.742  10.789  1.00  0.00     0.001 A 
ATOM     15  C15 UNK     1      47.476  19.605   9.752  1.00  0.00     0.000 A 
ATOM     16  C13 UNK     1      46.525  20.470   9.209  1.00  0.00     0.001 A 
ATOM     17  C11 UNK     1      45.220  20.471   9.702  1.00  0.00     0.014 A 
ENDBRANCH   5  12
BRANCH  10  18
ATOM     18  O4  UNK     1      38.165  21.823   9.599  1.00  0.00    -0.361 OA
ATOM     19  H10 UNK     1      37.837  22.600  10.083  1.00  0.00     0.217 HD
ENDBRANCH  10  18
BRANCH   7  20
ATOM     20  O2  UNK     1      38.953  19.246  13.511  1.00  0.00    -0.360 OA
ATOM     21  H9  UNK     1      38.592  18.369  13.310  1.00  0.00     0.217 HD
ENDBRANCH   7  20
TORSDOF 3
ENDMDL
MODEL 15
REMARK VINA RESULT:      -5.4      4.685      8.325
REMARK  3 active torsions:
REMARK  status: ('A' for Active; 'I' for Inactive)
REMARK    1  A    between atoms: O2_2  and  C6_10 
REMARK    2  A    between atoms: O4_4  and  C9_13 
REMARK    3  A    between atoms: C3_7  and  C5_9 
ROOT
ATOM      1  O1  UNK     1      44.844  22.895  10.663  1.00  0.00    -0.309 OA
ATOM      2  O3  UNK     1      41.265  21.338  11.834  1.00  0.00    -0.287 OA
ATOM      3  C1  UNK     1      42.591  23.264  11.494  1.00  0.00     0.081 A 
ATOM      4  C2  UNK     1      43.838  23.730  11.080  1.00  0.00     0.095 A 
ATOM      5  C3  UNK     1      44.610  21.528  10.662  1.00  0.00     0.090 A 
ATOM      6  C4  UNK     1      42.336  21.816  11.486  1.00  0.00     0.190 A 
ATOM      7  C6  UNK     1      41.604  24.161  11.909  1.00  0.00     0.085 A 
ATOM      8  C7  UNK     1      43.451  20.960  11.032  1.00  0.00     0.094 A 
ATOM      9  C8  UNK     1      44.105  25.099  11.076  1.00  0.00     0.075 A 
ATOM     10  C9  UNK     1      43.121  25.998  11.490  1.00  0.00     0.071 A 
ATOM     11  C10 UNK     1      41.873  25.530  11.904  1.00  0.00     0.074 A 
ENDROOT
BRANCH   5  12
ATOM     12  C5  UNK     1      45.754  20.724  10.190  1.00  0.00    -0.002 A 
ATOM     13  C12 UNK     1      46.198  19.630  10.938  1.00  0.00     0.014 A 
ATOM     14  C14 UNK     1      47.280  18.869  10.493  1.00  0.00     0.001 A 
ATOM     15  C15 UNK     1      47.920  19.199   9.298  1.00  0.00     0.000 A 
ATOM     16  C13 UNK     1      47.479  20.290   8.549  1.00  0.00     0.001 A 
ATOM     17  C11 UNK     1      46.398  21.051   8.994  1.00  0.00     0.014 A 
ENDBRANCH   5  12
BRANCH  10  18
ATOM     18  O4  UNK     1      43.379  27.336  11.486  1.00  0.00    -0.361 OA
ATOM     19  H10 UNK     1      42.911  27.748  12.232  1.00  0.00     0.217 HD
ENDBRANCH  10  18
BRANCH   7  20
ATOM     20  O2  UNK     1      40.371  23.756  12.322  1.00  0.00    -0.360 OA
ATOM     21  H9  UNK     1      39.895  23.322  11.597  1.00  0.00     0.217 HD
ENDBRANCH   7  20
TORSDOF 3
ENDMDL
MODEL 16
REMARK VINA RESULT:      -5.4      3.858      7.505
REMARK  3 active torsions:
REMARK  status: ('A' for Active; 'I' for Inactive)
REMARK    1  A    between atoms: O2_2  and  C6_10 
REMARK    2  A    between atoms: O4_4  and  C9_13 
REMARK    3  A    between atoms: C3_7  and  C5_9 
ROOT
ATOM      1  O1  UNK     1      41.262  23.125  12.186  1.00  0.00    -0.309 OA
ATOM      2  O3  UNK     1      44.488  25.253  10.895  1.00  0.00    -0.287 OA
ATOM      3  C1  UNK     1      42.320  25.283  11.835  1.00  0.00     0.081 A 
ATOM      4  C2  UNK     1      41.252  24.495  12.260  1.00  0.00     0.095 A 
ATOM      5  C3  UNK     1      42.382  22.500  11.659  1.00  0.00     0.090 A 
ATOM      6  C4  UNK     1      43.513  24.624  11.284  1.00  0.00     0.190 A 
ATOM      7  C6  UNK     1      42.254  26.675  11.935  1.00  0.00     0.085 A 
ATOM      8  C7  UNK     1      43.474  23.149  11.223  1.00  0.00     0.094 A 
ATOM      9  C8  UNK     1      40.109  25.095  12.788  1.00  0.00     0.075 A 
ATOM     10  C9  UNK     1      40.039  26.485  12.889  1.00  0.00     0.071 A 
ATOM     11  C10 UNK     1      41.110  27.272  12.464  1.00  0.00     0.074 A 
ENDROOT
BRANCH   5  12
ATOM     12  C5  UNK     1      42.291  21.027  11.631  1.00  0.00    -0.002 A 
ATOM     13  C12 UNK     1      41.293  20.372  12.358  1.00  0.00     0.014 A 
ATOM     14  C14 UNK     1      41.207  18.980  12.333  1.00  0.00     0.001 A 
ATOM     15  C15 UNK     1      42.118  18.238  11.581  1.00  0.00     0.000 A 
ATOM     16  C13 UNK     1      43.116  18.889  10.855  1.00  0.00     0.001 A 
ATOM     17  C11 UNK     1      43.202  20.280  10.879  1.00  0.00     0.014 A 
ENDBRANCH   5  12
BRANCH  10  18
ATOM     18  O4  UNK     1      38.925  27.074  13.406  1.00  0.00    -0.361 OA
ATOM     19  H10 UNK     1      38.139  26.674  12.996  1.00  0.00     0.217 HD
ENDBRANCH  10  18
BRANCH   7  20
ATOM     20  O2  UNK     1      43.271  27.488  11.535  1.00  0.00    -0.360 OA
ATOM     21  H9  UNK     1      43.977  26.970  11.120  1.00  0.00     0.217 HD
ENDBRANCH   7  20
TORSDOF 3
ENDMDL
MODEL 17
REMARK VINA RESULT:      -5.4      5.011      7.214
REMARK  3 active torsions:
REMARK  status: ('A' for Active; 'I' for Inactive)
REMARK    1  A    between atoms: O2_2  and  C6_10 
REMARK    2  A    between atoms: O4_4  and  C9_13 
REMARK    3  A    between atoms: C3_7  and  C5_9 
ROOT
ATOM      1  O1  UNK     1      42.933  22.025  11.291  1.00  0.00    -0.309 OA
ATOM      2  O3  UNK     1      42.555  24.223  14.701  1.00  0.00    -0.287 OA
ATOM      3  C1  UNK     1      42.982  24.198  12.377  1.00  0.00     0.081 A 
ATOM      4  C2  UNK     1      43.096  23.387  11.249  1.00  0.00     0.095 A 
ATOM      5  C3  UNK     1      42.650  21.431  12.511  1.00  0.00     0.090 A 
ATOM      6  C4  UNK     1      42.672  23.573  13.671  1.00  0.00     0.190 A 
ATOM      7  C6  UNK     1      43.158  25.580  12.275  1.00  0.00     0.085 A 
ATOM      8  C7  UNK     1      42.509  22.104  13.664  1.00  0.00     0.094 A 
ATOM      9  C8  UNK     1      43.387  23.955  10.008  1.00  0.00     0.075 A 
ATOM     10  C9  UNK     1      43.565  25.335   9.902  1.00  0.00     0.071 A 
ATOM     11  C10 UNK     1      43.450  26.145  11.033  1.00  0.00     0.074 A 
ENDROOT
BRANCH   5  12
ATOM     12  C5  UNK     1      42.487  19.966  12.442  1.00  0.00    -0.002 A 
ATOM     13  C12 UNK     1      43.569  19.157  12.084  1.00  0.00     0.014 A 
ATOM     14  C14 UNK     1      43.416  17.771  12.019  1.00  0.00     0.001 A 
ATOM     15  C15 UNK     1      42.182  17.191  12.311  1.00  0.00     0.000 A 
ATOM     16  C13 UNK     1      41.100  17.996  12.668  1.00  0.00     0.001 A 
ATOM     17  C11 UNK     1      41.253  19.380  12.734  1.00  0.00     0.014 A 
ENDBRANCH   5  12
BRANCH  10  18
ATOM     18  O4  UNK     1      43.848  25.893   8.692  1.00  0.00    -0.361 OA
ATOM     19  H10 UNK     1      44.296  26.744   8.835  1.00  0.00     0.217 HD
ENDBRANCH  10  18
BRANCH   7  20
ATOM     20  O2  UNK     1      43.057  26.413  13.347  1.00  0.00    -0.360 OA
ATOM     21  H9  UNK     1      42.742  25.929  14.125  1.00  0.00     0.217 HD
ENDBRANCH   7  20
TORSDOF 3
ENDMDL
MODEL 18
REMARK VINA RESULT:      -5.3      3.406      5.173
REMARK  3 active torsions:
REMARK  status: ('A' for Active; 'I' for Inactive)
REMARK    1  A    between atoms: O2_2  and  C6_10 
REMARK    2  A    between atoms: O4_4  and  C9_13 
REMARK    3  A    between atoms: C3_7  and  C5_9 
ROOT
ATOM      1  O1  UNK     1      41.483  22.875  12.192  1.00  0.00    -0.309 OA
ATOM      2  O3  UNK     1      44.897  22.166  10.084  1.00  0.00    -0.287 OA
ATOM      3  C1  UNK     1      42.978  21.276  11.138  1.00  0.00     0.081 A 
ATOM      4  C2  UNK     1      41.825  21.589  11.856  1.00  0.00     0.095 A 
ATOM      5  C3  UNK     1      42.326  23.905  11.805  1.00  0.00     0.090 A 
ATOM      6  C4  UNK     1      43.870  22.367  10.718  1.00  0.00     0.190 A 
ATOM      7  C6  UNK     1      43.277  19.948  10.824  1.00  0.00     0.085 A 
ATOM      8  C7  UNK     1      43.459  23.732  11.106  1.00  0.00     0.094 A 
ATOM      9  C8  UNK     1      40.961  20.573  12.265  1.00  0.00     0.075 A 
ATOM     10  C9  UNK     1      41.256  19.245  11.954  1.00  0.00     0.071 A 
ATOM     11  C10 UNK     1      42.411  18.934  11.235  1.00  0.00     0.074 A 
ENDROOT
BRANCH   5  12
ATOM     12  C5  UNK     1      41.860  25.246  12.210  1.00  0.00    -0.002 A 
ATOM     13  C12 UNK     1      40.533  25.439  12.603  1.00  0.00     0.014 A 
ATOM     14  C14 UNK     1      40.093  26.706  12.986  1.00  0.00     0.001 A 
ATOM     15  C15 UNK     1      40.977  27.784  12.979  1.00  0.00     0.000 A 
ATOM     16  C13 UNK     1      42.303  27.595  12.587  1.00  0.00     0.001 A 
ATOM     17  C11 UNK     1      42.744  26.328  12.204  1.00  0.00     0.014 A 
ENDBRANCH   5  12
BRANCH  10  18
ATOM     18  O4  UNK     1      40.414  18.251  12.351  1.00  0.00    -0.361 OA
ATOM     19  H10 UNK     1      40.730  17.406  11.987  1.00  0.00     0.217 HD
ENDBRANCH  10  18
BRANCH   7  20
ATOM     20  O2  UNK     1      44.390  19.592  10.125  1.00  0.00    -0.360 OA
ATOM     21  H9  UNK     1      44.563  18.644  10.223  1.00  0.00     0.217 HD
ENDBRANCH   7  20
TORSDOF 3
ENDMDL
