MODEL 1
REMARK VINA RESULT:      -8.2      0.000      0.000
REMARK  3 active torsions:
REMARK  status: ('A' for Active; 'I' for Inactive)
REMARK    1  A    between atoms: O2_2  and  C6_10 
REMARK    2  A    between atoms: O4_4  and  C9_13 
REMARK    3  A    between atoms: C3_7  and  C5_9 
ROOT
ATOM      1  O1  UNK     1      40.222  14.470  -0.008  1.00  0.00    -0.309 OA
ATOM      2  O3  UNK     1      41.887  11.550  -2.310  1.00  0.00    -0.287 OA
ATOM      3  C1  UNK     1      40.988  12.175  -0.215  1.00  0.00     0.081 A 
ATOM      4  C2  UNK     1      40.423  13.218   0.516  1.00  0.00     0.095 A 
ATOM      5  C3  UNK     1      40.605  14.708  -1.318  1.00  0.00     0.090 A 
ATOM      6  C4  UNK     1      41.387  12.420  -1.609  1.00  0.00     0.190 A 
ATOM      7  C6  UNK     1      41.169  10.919   0.369  1.00  0.00     0.085 A 
ATOM      8  C7  UNK     1      41.153  13.784  -2.125  1.00  0.00     0.094 A 
ATOM      9  C8  UNK     1      40.033  13.011   1.839  1.00  0.00     0.075 A 
ATOM     10  C9  UNK     1      40.212  11.758   2.427  1.00  0.00     0.071 A 
ATOM     11  C10 UNK     1      40.778  10.715   1.693  1.00  0.00     0.074 A 
ENDROOT
BRANCH   5  12
ATOM     12  C5  UNK     1      40.339  16.084  -1.782  1.00  0.00    -0.002 A 
ATOM     13  C12 UNK     1      40.652  16.455  -3.093  1.00  0.00     0.014 A 
ATOM     14  C14 UNK     1      40.401  17.755  -3.532  1.00  0.00     0.001 A 
ATOM     15  C15 UNK     1      39.835  18.688  -2.662  1.00  0.00     0.000 A 
ATOM     16  C13 UNK     1      39.522  18.321  -1.353  1.00  0.00     0.001 A 
ATOM     17  C11 UNK     1      39.773  17.021  -0.915  1.00  0.00     0.014 A 
ENDBRANCH   5  12
BRANCH  10  18
ATOM     18  O4  UNK     1      39.832  11.553   3.719  1.00  0.00    -0.361 OA
ATOM     19  H10 UNK     1      39.548  10.629   3.820  1.00  0.00     0.217 HD
ENDBRANCH  10  18
BRANCH   7  20
ATOM     20  O2  UNK     1      41.715   9.868  -0.303  1.00  0.00    -0.360 OA
ATOM     21  H9  UNK     1      42.575   9.632   0.077  1.00  0.00     0.217 HD
ENDBRANCH   7  20
TORSDOF 3
ENDMDL
MODEL 2
REMARK VINA RESULT:      -8.2      0.001      1.108
REMARK  3 active torsions:
REMARK  status: ('A' for Active; 'I' for Inactive)
REMARK    1  A    between atoms: O2_2  and  C6_10 
REMARK    2  A    between atoms: O4_4  and  C9_13 
REMARK    3  A    between atoms: C3_7  and  C5_9 
ROOT
ATOM      1  O1  UNK     1      40.222  14.470  -0.008  1.00  0.00    -0.309 OA
ATOM      2  O3  UNK     1      41.887  11.549  -2.309  1.00  0.00    -0.287 OA
ATOM      3  C1  UNK     1      40.988  12.174  -0.215  1.00  0.00     0.081 A 
ATOM      4  C2  UNK     1      40.423  13.218   0.516  1.00  0.00     0.095 A 
ATOM      5  C3  UNK     1      40.606  14.707  -1.318  1.00  0.00     0.090 A 
ATOM      6  C4  UNK     1      41.388  12.419  -1.608  1.00  0.00     0.190 A 
ATOM      7  C6  UNK     1      41.169  10.919   0.370  1.00  0.00     0.085 A 
ATOM      8  C7  UNK     1      41.153  13.783  -2.125  1.00  0.00     0.094 A 
ATOM      9  C8  UNK     1      40.033  13.011   1.839  1.00  0.00     0.075 A 
ATOM     10  C9  UNK     1      40.212  11.759   2.428  1.00  0.00     0.071 A 
ATOM     11  C10 UNK     1      40.778  10.715   1.694  1.00  0.00     0.074 A 
ENDROOT
BRANCH   5  12
ATOM     12  C5  UNK     1      40.339  16.083  -1.783  1.00  0.00    -0.002 A 
ATOM     13  C12 UNK     1      39.774  17.019  -0.913  1.00  0.00     0.014 A 
ATOM     14  C14 UNK     1      39.521  18.320  -1.352  1.00  0.00     0.001 A 
ATOM     15  C15 UNK     1      39.834  18.688  -2.660  1.00  0.00     0.000 A 
ATOM     16  C13 UNK     1      40.399  17.756  -3.530  1.00  0.00     0.001 A 
ATOM     17  C11 UNK     1      40.651  16.456  -3.093  1.00  0.00     0.014 A 
ENDBRANCH   5  12
BRANCH  10  18
ATOM     18  O4  UNK     1      39.832  11.554   3.719  1.00  0.00    -0.361 OA
ATOM     19  H10 UNK     1      39.478  12.384   4.079  1.00  0.00     0.217 HD
ENDBRANCH  10  18
BRANCH   7  20
ATOM     20  O2  UNK     1      41.715   9.868  -0.302  1.00  0.00    -0.360 OA
ATOM     21  H9  UNK     1      42.667  10.002  -0.426  1.00  0.00     0.217 HD
ENDBRANCH   7  20
TORSDOF 3
ENDMDL
MODEL 3
REMARK VINA RESULT:      -7.9      2.432      6.383
REMARK  3 active torsions:
REMARK  status: ('A' for Active; 'I' for Inactive)
REMARK    1  A    between atoms: O2_2  and  C6_10 
REMARK    2  A    between atoms: O4_4  and  C9_13 
REMARK    3  A    between atoms: C3_7  and  C5_9 
ROOT
ATOM      1  O1  UNK     1      39.749  15.634  -0.275  1.00  0.00    -0.309 OA
ATOM      2  O3  UNK     1      40.972  17.261  -3.804  1.00  0.00    -0.287 OA
ATOM      3  C1  UNK     1      39.876  17.572  -1.734  1.00  0.00     0.081 A 
ATOM      4  C2  UNK     1      39.488  16.954  -0.547  1.00  0.00     0.095 A 
ATOM      5  C3  UNK     1      40.423  14.884  -1.226  1.00  0.00     0.090 A 
ATOM      6  C4  UNK     1      40.599  16.782  -2.742  1.00  0.00     0.190 A 
ATOM      7  C6  UNK     1      39.583  18.919  -1.958  1.00  0.00     0.085 A 
ATOM      8  C7  UNK     1      40.854  15.367  -2.403  1.00  0.00     0.094 A 
ATOM      9  C8  UNK     1      38.802  17.681   0.427  1.00  0.00     0.075 A 
ATOM     10  C9  UNK     1      38.507  19.027   0.207  1.00  0.00     0.071 A 
ATOM     11  C10 UNK     1      38.898  19.644  -0.982  1.00  0.00     0.074 A 
ENDROOT
BRANCH   5  12
ATOM     12  C5  UNK     1      40.657  13.482  -0.830  1.00  0.00    -0.002 A 
ATOM     13  C12 UNK     1      40.114  12.989   0.360  1.00  0.00     0.014 A 
ATOM     14  C14 UNK     1      40.336  11.664   0.736  1.00  0.00     0.001 A 
ATOM     15  C15 UNK     1      41.101  10.827  -0.077  1.00  0.00     0.000 A 
ATOM     16  C13 UNK     1      41.644  11.316  -1.265  1.00  0.00     0.001 A 
ATOM     17  C11 UNK     1      41.423  12.640  -1.641  1.00  0.00     0.014 A 
ENDBRANCH   5  12
BRANCH  10  18
ATOM     18  O4  UNK     1      37.839  19.740   1.156  1.00  0.00    -0.361 OA
ATOM     19  H10 UNK     1      38.119  19.433   2.035  1.00  0.00     0.217 HD
ENDBRANCH  10  18
BRANCH   7  20
ATOM     20  O2  UNK     1      39.942  19.568  -3.100  1.00  0.00    -0.360 OA
ATOM     21  H9  UNK     1      39.645  20.491  -3.074  1.00  0.00     0.217 HD
ENDBRANCH   7  20
TORSDOF 3
ENDMDL
MODEL 4
REMARK VINA RESULT:      -7.9      2.426      6.286
REMARK  3 active torsions:
REMARK  status: ('A' for Active; 'I' for Inactive)
REMARK    1  A    between atoms: O2_2  and  C6_10 
REMARK    2  A    between atoms: O4_4  and  C9_13 
REMARK    3  A    between atoms: C3_7  and  C5_9 
ROOT
ATOM      1  O1  UNK     1      39.765  15.633  -0.257  1.00  0.00    -0.309 OA
ATOM      2  O3  UNK     1      40.980  17.235  -3.801  1.00  0.00    -0.287 OA
ATOM      3  C1  UNK     1      39.885  17.560  -1.731  1.00  0.00     0.081 A 
ATOM      4  C2  UNK     1      39.500  16.950  -0.539  1.00  0.00     0.095 A 
ATOM      5  C3  UNK     1      40.440  14.877  -1.204  1.00  0.00     0.090 A 
ATOM      6  C4  UNK     1      40.609  16.764  -2.734  1.00  0.00     0.190 A 
ATOM      7  C6  UNK     1      39.589  18.904  -1.965  1.00  0.00     0.085 A 
ATOM      8  C7  UNK     1      40.868  15.352  -2.384  1.00  0.00     0.094 A 
ATOM      9  C8  UNK     1      38.814  17.682   0.429  1.00  0.00     0.075 A 
ATOM     10  C9  UNK     1      38.515  19.026   0.200  1.00  0.00     0.071 A 
ATOM     11  C10 UNK     1      38.902  19.635  -0.995  1.00  0.00     0.074 A 
ENDROOT
BRANCH   5  12
ATOM     12  C5  UNK     1      40.678  13.479  -0.797  1.00  0.00    -0.002 A 
ATOM     13  C12 UNK     1      41.375  12.611  -1.643  1.00  0.00     0.014 A 
ATOM     14  C14 UNK     1      41.600  11.289  -1.259  1.00  0.00     0.001 A 
ATOM     15  C15 UNK     1      41.131  10.830  -0.028  1.00  0.00     0.000 A 
ATOM     16  C13 UNK     1      40.435  11.693   0.819  1.00  0.00     0.001 A 
ATOM     17  C11 UNK     1      40.210  13.015   0.435  1.00  0.00     0.014 A 
ENDBRANCH   5  12
BRANCH  10  18
ATOM     18  O4  UNK     1      37.846  19.744   1.144  1.00  0.00    -0.361 OA
ATOM     19  H10 UNK     1      38.007  19.345   2.016  1.00  0.00     0.217 HD
ENDBRANCH  10  18
BRANCH   7  20
ATOM     20  O2  UNK     1      39.944  19.546  -3.113  1.00  0.00    -0.360 OA
ATOM     21  H9  UNK     1      39.184  20.016  -3.489  1.00  0.00     0.217 HD
ENDBRANCH   7  20
TORSDOF 3
ENDMDL
MODEL 5
REMARK VINA RESULT:      -7.6      2.621      4.345
REMARK  3 active torsions:
REMARK  status: ('A' for Active; 'I' for Inactive)
REMARK    1  A    between atoms: O2_2  and  C6_10 
REMARK    2  A    between atoms: O4_4  and  C9_13 
REMARK    3  A    between atoms: C3_7  and  C5_9 
ROOT
ATOM      1  O1  UNK     1      40.340  17.000  -1.147  1.00  0.00    -0.309 OA
ATOM      2  O3  UNK     1      36.871  14.917  -0.676  1.00  0.00    -0.287 OA
ATOM      3  C1  UNK     1      39.188  14.862  -1.138  1.00  0.00     0.081 A 
ATOM      4  C2  UNK     1      40.338  15.635  -1.285  1.00  0.00     0.095 A 
ATOM      5  C3  UNK     1      39.143  17.637  -0.857  1.00  0.00     0.090 A 
ATOM      6  C4  UNK     1      37.918  15.532  -0.821  1.00  0.00     0.190 A 
ATOM      7  C6  UNK     1      39.244  13.474  -1.289  1.00  0.00     0.085 A 
ATOM      8  C7  UNK     1      37.972  17.003  -0.686  1.00  0.00     0.094 A 
ATOM      9  C8  UNK     1      41.556  15.023  -1.584  1.00  0.00     0.075 A 
ATOM     10  C9  UNK     1      41.617  13.638  -1.736  1.00  0.00     0.071 A 
ATOM     11  C10 UNK     1      40.463  12.865  -1.588  1.00  0.00     0.074 A 
ENDROOT
BRANCH   5  12
ATOM     12  C5  UNK     1      39.260  19.102  -0.724  1.00  0.00    -0.002 A 
ATOM     13  C12 UNK     1      38.648  19.760   0.347  1.00  0.00     0.014 A 
ATOM     14  C14 UNK     1      38.757  21.146   0.473  1.00  0.00     0.001 A 
ATOM     15  C15 UNK     1      39.478  21.877  -0.470  1.00  0.00     0.000 A 
ATOM     16  C13 UNK     1      40.090  21.223  -1.540  1.00  0.00     0.001 A 
ATOM     17  C11 UNK     1      39.981  19.839  -1.666  1.00  0.00     0.014 A 
ENDBRANCH   5  12
BRANCH  10  18
ATOM     18  O4  UNK     1      42.804  13.037  -2.027  1.00  0.00    -0.361 OA
ATOM     19  H10 UNK     1      43.512  13.482  -1.530  1.00  0.00     0.217 HD
ENDBRANCH  10  18
BRANCH   7  20
ATOM     20  O2  UNK     1      38.149  12.676  -1.155  1.00  0.00    -0.360 OA
ATOM     21  H9  UNK     1      38.003  12.454  -0.223  1.00  0.00     0.217 HD
ENDBRANCH   7  20
TORSDOF 3
ENDMDL
MODEL 6
REMARK VINA RESULT:      -7.2      2.417      7.000
REMARK  3 active torsions:
REMARK  status: ('A' for Active; 'I' for Inactive)
REMARK    1  A    between atoms: O2_2  and  C6_10 
REMARK    2  A    between atoms: O4_4  and  C9_13 
REMARK    3  A    between atoms: C3_7  and  C5_9 
ROOT
ATOM      1  O1  UNK     1      40.736  15.121  -2.127  1.00  0.00    -0.309 OA
ATOM      2  O3  UNK     1      38.937  17.824   0.334  1.00  0.00    -0.287 OA
ATOM      3  C1  UNK     1      39.924  17.382  -1.767  1.00  0.00     0.081 A 
ATOM      4  C2  UNK     1      40.531  16.408  -2.557  1.00  0.00     0.095 A 
ATOM      5  C3  UNK     1      40.326  14.780  -0.847  1.00  0.00     0.090 A 
ATOM      6  C4  UNK     1      39.479  17.022  -0.413  1.00  0.00     0.190 A 
ATOM      7  C6  UNK     1      39.741  18.677  -2.257  1.00  0.00     0.085 A 
ATOM      8  C7  UNK     1      39.724  15.626   0.005  1.00  0.00     0.094 A 
ATOM      9  C8  UNK     1      40.960  16.724  -3.846  1.00  0.00     0.075 A 
ATOM     10  C9  UNK     1      40.780  18.017  -4.340  1.00  0.00     0.071 A 
ATOM     11  C10 UNK     1      40.171  18.990  -3.547  1.00  0.00     0.074 A 
ENDROOT
BRANCH   5  12
ATOM     12  C5  UNK     1      40.587  13.372  -0.489  1.00  0.00    -0.002 A 
ATOM     13  C12 UNK     1      40.187  12.879   0.756  1.00  0.00     0.014 A 
ATOM     14  C14 UNK     1      40.434  11.549   1.096  1.00  0.00     0.001 A 
ATOM     15  C15 UNK     1      41.081  10.706   0.192  1.00  0.00     0.000 A 
ATOM     16  C13 UNK     1      41.481  11.195  -1.052  1.00  0.00     0.001 A 
ATOM     17  C11 UNK     1      41.234  12.525  -1.392  1.00  0.00     0.014 A 
ENDBRANCH   5  12
BRANCH  10  18
ATOM     18  O4  UNK     1      41.197  18.328  -5.599  1.00  0.00    -0.361 OA
ATOM     19  H10 UNK     1      42.117  18.641  -5.558  1.00  0.00     0.217 HD
ENDBRANCH  10  18
BRANCH   7  20
ATOM     20  O2  UNK     1      39.153  19.663  -1.525  1.00  0.00    -0.360 OA
ATOM     21  H9  UNK     1      39.804  20.338  -1.279  1.00  0.00     0.217 HD
ENDBRANCH   7  20
TORSDOF 3
ENDMDL
MODEL 7
REMARK VINA RESULT:      -6.7      1.667      2.546
REMARK  3 active torsions:
REMARK  status: ('A' for Active; 'I' for Inactive)
REMARK    1  A    between atoms: O2_2  and  C6_10 
REMARK    2  A    between atoms: O4_4  and  C9_13 
REMARK    3  A    between atoms: C3_7  and  C5_9 
ROOT
ATOM      1  O1  UNK     1      39.438  15.309  -0.127  1.00  0.00    -0.309 OA
ATOM      2  O3  UNK     1      42.462  14.763  -2.801  1.00  0.00    -0.287 OA
ATOM      3  C1  UNK     1      40.982  13.796  -1.234  1.00  0.00     0.081 A 
ATOM      4  C2  UNK     1      39.948  14.052  -0.335  1.00  0.00     0.095 A 
ATOM      5  C3  UNK     1      39.982  16.369  -0.836  1.00  0.00     0.090 A 
ATOM      6  C4  UNK     1      41.555  14.915  -1.995  1.00  0.00     0.190 A 
ATOM      7  C6  UNK     1      41.462  12.495  -1.406  1.00  0.00     0.085 A 
ATOM      8  C7  UNK     1      40.974  16.248  -1.732  1.00  0.00     0.094 A 
ATOM      9  C8  UNK     1      39.385  13.007   0.397  1.00  0.00     0.075 A 
ATOM     10  C9  UNK     1      39.862  11.706   0.229  1.00  0.00     0.071 A 
ATOM     11  C10 UNK     1      40.897  11.452  -0.672  1.00  0.00     0.074 A 
ENDROOT
BRANCH   5  12
ATOM     12  C5  UNK     1      39.356  17.673  -0.540  1.00  0.00    -0.002 A 
ATOM     13  C12 UNK     1      39.568  18.761  -1.391  1.00  0.00     0.014 A 
ATOM     14  C14 UNK     1      38.978  19.994  -1.112  1.00  0.00     0.001 A 
ATOM     15  C15 UNK     1      38.173  20.143   0.017  1.00  0.00     0.000 A 
ATOM     16  C13 UNK     1      37.960  19.058   0.869  1.00  0.00     0.001 A 
ATOM     17  C11 UNK     1      38.549  17.826   0.590  1.00  0.00     0.014 A 
ENDBRANCH   5  12
BRANCH  10  18
ATOM     18  O4  UNK     1      39.313  10.684   0.942  1.00  0.00    -0.361 OA
ATOM     19  H10 UNK     1      38.800  10.119   0.339  1.00  0.00     0.217 HD
ENDBRANCH  10  18
BRANCH   7  20
ATOM     20  O2  UNK     1      42.469  12.193  -2.271  1.00  0.00    -0.360 OA
ATOM     21  H9  UNK     1      42.194  11.493  -2.882  1.00  0.00     0.217 HD
ENDBRANCH   7  20
TORSDOF 3
ENDMDL
MODEL 8
REMARK VINA RESULT:      -6.5      3.342      5.671
REMARK  3 active torsions:
REMARK  status: ('A' for Active; 'I' for Inactive)
REMARK    1  A    between atoms: O2_2  and  C6_10 
REMARK    2  A    between atoms: O4_4  and  C9_13 
REMARK    3  A    between atoms: C3_7  and  C5_9 
ROOT
ATOM      1  O1  UNK     1      39.501  18.721  -0.718  1.00  0.00    -0.309 OA
ATOM      2  O3  UNK     1      40.748  18.348  -4.579  1.00  0.00    -0.287 OA
ATOM      3  C1  UNK     1      39.927  17.288  -2.633  1.00  0.00     0.081 A 
ATOM      4  C2  UNK     1      39.512  17.486  -1.317  1.00  0.00     0.095 A 
ATOM      5  C3  UNK     1      39.929  19.816  -1.453  1.00  0.00     0.090 A 
ATOM      6  C4  UNK     1      40.373  18.448  -3.419  1.00  0.00     0.190 A 
ATOM      7  C6  UNK     1      39.917  16.008  -3.192  1.00  0.00     0.085 A 
ATOM      8  C7  UNK     1      40.346  19.754  -2.729  1.00  0.00     0.094 A 
ATOM      9  C8  UNK     1      39.082  16.403  -0.551  1.00  0.00     0.075 A 
ATOM     10  C9  UNK     1      39.071  15.123  -1.105  1.00  0.00     0.071 A 
ATOM     11  C10 UNK     1      39.487  14.926  -2.423  1.00  0.00     0.074 A 
ENDROOT
BRANCH   5  12
ATOM     12  C5  UNK     1      39.871  21.094  -0.717  1.00  0.00    -0.002 A 
ATOM     13  C12 UNK     1      40.417  22.252  -1.277  1.00  0.00     0.014 A 
ATOM     14  C14 UNK     1      40.363  23.460  -0.581  1.00  0.00     0.001 A 
ATOM     15  C15 UNK     1      39.762  23.514   0.676  1.00  0.00     0.000 A 
ATOM     16  C13 UNK     1      39.216  22.360   1.238  1.00  0.00     0.001 A 
ATOM     17  C11 UNK     1      39.270  21.153   0.543  1.00  0.00     0.014 A 
ENDBRANCH   5  12
BRANCH  10  18
ATOM     18  O4  UNK     1      38.651  14.063  -0.359  1.00  0.00    -0.361 OA
ATOM     19  H10 UNK     1      38.710  13.256  -0.898  1.00  0.00     0.217 HD
ENDBRANCH  10  18
BRANCH   7  20
ATOM     20  O2  UNK     1      40.312  15.763  -4.472  1.00  0.00    -0.360 OA
ATOM     21  H9  UNK     1      39.879  16.376  -5.084  1.00  0.00     0.217 HD
ENDBRANCH   7  20
TORSDOF 3
ENDMDL
MODEL 9
REMARK VINA RESULT:      -5.6      9.346     10.753
REMARK  3 active torsions:
REMARK  status: ('A' for Active; 'I' for Inactive)
REMARK    1  A    between atoms: O2_2  and  C6_10 
REMARK    2  A    between atoms: O4_4  and  C9_13 
REMARK    3  A    between atoms: C3_7  and  C5_9 
ROOT
ATOM      1  O1  UNK     1      46.206  11.457  -7.603  1.00  0.00    -0.309 OA
ATOM      2  O3  UNK     1      48.200   8.102  -8.772  1.00  0.00    -0.287 OA
ATOM      3  C1  UNK     1      46.186   9.339  -8.792  1.00  0.00     0.081 A 
ATOM      4  C2  UNK     1      45.564  10.509  -8.359  1.00  0.00     0.095 A 
ATOM      5  C3  UNK     1      47.527  11.236  -7.248  1.00  0.00     0.090 A 
ATOM      6  C4  UNK     1      47.591   9.105  -8.425  1.00  0.00     0.190 A 
ATOM      7  C6  UNK     1      45.484   8.408  -9.560  1.00  0.00     0.085 A 
ATOM      8  C7  UNK     1      48.235  10.153  -7.608  1.00  0.00     0.094 A 
ATOM      9  C8  UNK     1      44.233  10.756  -8.695  1.00  0.00     0.075 A 
ATOM     10  C9  UNK     1      43.527   9.828  -9.462  1.00  0.00     0.071 A 
ATOM     11  C10 UNK     1      44.152   8.657  -9.895  1.00  0.00     0.074 A 
ENDROOT
BRANCH   5  12
ATOM     12  C5  UNK     1      48.122  12.320  -6.441  1.00  0.00    -0.002 A 
ATOM     13  C12 UNK     1      49.044  13.198  -7.017  1.00  0.00     0.014 A 
ATOM     14  C14 UNK     1      49.607  14.222  -6.255  1.00  0.00     0.001 A 
ATOM     15  C15 UNK     1      49.249  14.372  -4.915  1.00  0.00     0.000 A 
ATOM     16  C13 UNK     1      48.328  13.497  -4.337  1.00  0.00     0.001 A 
ATOM     17  C11 UNK     1      47.766  12.474  -5.099  1.00  0.00     0.014 A 
ENDBRANCH   5  12
BRANCH  10  18
ATOM     18  O4  UNK     1      42.228  10.067  -9.793  1.00  0.00    -0.361 OA
ATOM     19  H10 UNK     1      41.755   9.219  -9.846  1.00  0.00     0.217 HD
ENDBRANCH  10  18
BRANCH   7  20
ATOM     20  O2  UNK     1      46.047   7.251 -10.007  1.00  0.00    -0.360 OA
ATOM     21  H9  UNK     1      45.786   6.507  -9.444  1.00  0.00     0.217 HD
ENDBRANCH   7  20
TORSDOF 3
ENDMDL
MODEL 10
REMARK VINA RESULT:      -5.6      9.342     10.802
REMARK  3 active torsions:
REMARK  status: ('A' for Active; 'I' for Inactive)
REMARK    1  A    between atoms: O2_2  and  C6_10 
REMARK    2  A    between atoms: O4_4  and  C9_13 
REMARK    3  A    between atoms: C3_7  and  C5_9 
ROOT
ATOM      1  O1  UNK     1      46.222  11.488  -7.613  1.00  0.00    -0.309 OA
ATOM      2  O3  UNK     1      48.213   8.124  -8.763  1.00  0.00    -0.287 OA
ATOM      3  C1  UNK     1      46.200   9.362  -8.788  1.00  0.00     0.081 A 
ATOM      4  C2  UNK     1      45.579  10.535  -8.362  1.00  0.00     0.095 A 
ATOM      5  C3  UNK     1      47.545  11.269  -7.259  1.00  0.00     0.090 A 
ATOM      6  C4  UNK     1      47.605   9.129  -8.422  1.00  0.00     0.190 A 
ATOM      7  C6  UNK     1      45.496   8.426  -9.549  1.00  0.00     0.085 A 
ATOM      8  C7  UNK     1      48.252  10.183  -7.613  1.00  0.00     0.094 A 
ATOM      9  C8  UNK     1      44.248  10.780  -8.698  1.00  0.00     0.075 A 
ATOM     10  C9  UNK     1      43.541   9.848  -9.458  1.00  0.00     0.071 A 
ATOM     11  C10 UNK     1      44.164   8.674  -9.883  1.00  0.00     0.074 A 
ENDROOT
BRANCH   5  12
ATOM     12  C5  UNK     1      48.141  12.357  -6.461  1.00  0.00    -0.002 A 
ATOM     13  C12 UNK     1      47.751  12.548  -5.132  1.00  0.00     0.014 A 
ATOM     14  C14 UNK     1      48.314  13.578  -4.377  1.00  0.00     0.001 A 
ATOM     15  C15 UNK     1      49.269  14.419  -4.947  1.00  0.00     0.000 A 
ATOM     16  C13 UNK     1      49.661  14.231  -6.273  1.00  0.00     0.001 A 
ATOM     17  C11 UNK     1      49.099  13.202  -7.028  1.00  0.00     0.014 A 
ENDBRANCH   5  12
BRANCH  10  18
ATOM     18  O4  UNK     1      42.241  10.085  -9.788  1.00  0.00    -0.361 OA
ATOM     19  H10 UNK     1      42.000   9.523 -10.543  1.00  0.00     0.217 HD
ENDBRANCH  10  18
BRANCH   7  20
ATOM     20  O2  UNK     1      46.058   7.265  -9.988  1.00  0.00    -0.360 OA
ATOM     21  H9  UNK     1      46.230   6.668  -9.245  1.00  0.00     0.217 HD
ENDBRANCH   7  20
TORSDOF 3
ENDMDL
