MODEL 1
REMARK VINA RESULT:      -7.8      0.000      0.000
REMARK  3 active torsions:
REMARK  status: ('A' for Active; 'I' for Inactive)
REMARK    1  A    between atoms: O2_2  and  C6_10 
REMARK    2  A    between atoms: O4_4  and  C9_13 
REMARK    3  A    between atoms: C3_7  and  C5_9 
ROOT
ATOM      1  O1  UNK     1      39.743  15.662  -0.273  1.00  0.00    -0.309 OA
ATOM      2  O3  UNK     1      40.959  17.273  -3.812  1.00  0.00    -0.287 OA
ATOM      3  C1  UNK     1      39.882  17.598  -1.733  1.00  0.00     0.081 A 
ATOM      4  C2  UNK     1      39.495  16.984  -0.544  1.00  0.00     0.095 A 
ATOM      5  C3  UNK     1      40.401  14.904  -1.229  1.00  0.00     0.090 A 
ATOM      6  C4  UNK     1      40.588  16.800  -2.747  1.00  0.00     0.190 A 
ATOM      7  C6  UNK     1      39.603  18.948  -1.956  1.00  0.00     0.085 A 
ATOM      8  C7  UNK     1      40.829  15.382  -2.409  1.00  0.00     0.094 A 
ATOM      9  C8  UNK     1      38.825  17.719   0.435  1.00  0.00     0.075 A 
ATOM     10  C9  UNK     1      38.544  19.069   0.217  1.00  0.00     0.071 A 
ATOM     11  C10 UNK     1      38.933  19.681  -0.975  1.00  0.00     0.074 A 
ENDROOT
BRANCH   5  12
ATOM     12  C5  UNK     1      40.622  13.499  -0.834  1.00  0.00    -0.002 A 
ATOM     13  C12 UNK     1      40.022  12.993   0.322  1.00  0.00     0.014 A 
ATOM     14  C14 UNK     1      40.231  11.665   0.696  1.00  0.00     0.001 A 
ATOM     15  C15 UNK     1      41.040  10.839  -0.084  1.00  0.00     0.000 A 
ATOM     16  C13 UNK     1      41.642  11.342  -1.238  1.00  0.00     0.001 A 
ATOM     17  C11 UNK     1      41.432  12.669  -1.613  1.00  0.00     0.014 A 
ENDBRANCH   5  12
BRANCH  10  18
ATOM     18  O4  UNK     1      37.892  19.789   1.171  1.00  0.00    -0.361 OA
ATOM     19  H10 UNK     1      37.991  20.736   0.973  1.00  0.00     0.217 HD
ENDBRANCH  10  18
BRANCH   7  20
ATOM     20  O2  UNK     1      39.960  19.593  -3.100  1.00  0.00    -0.360 OA
ATOM     21  H9  UNK     1      40.555  19.041  -3.630  1.00  0.00     0.217 HD
ENDBRANCH   7  20
TORSDOF 3
ENDMDL
MODEL 2
REMARK VINA RESULT:      -7.2      1.273      2.973
REMARK  3 active torsions:
REMARK  status: ('A' for Active; 'I' for Inactive)
REMARK    1  A    between atoms: O2_2  and  C6_10 
REMARK    2  A    between atoms: O4_4  and  C9_13 
REMARK    3  A    between atoms: C3_7  and  C5_9 
ROOT
ATOM      1  O1  UNK     1      40.729  15.128  -2.127  1.00  0.00    -0.309 OA
ATOM      2  O3  UNK     1      38.943  17.833   0.342  1.00  0.00    -0.287 OA
ATOM      3  C1  UNK     1      39.923  17.390  -1.762  1.00  0.00     0.081 A 
ATOM      4  C2  UNK     1      40.526  16.416  -2.555  1.00  0.00     0.095 A 
ATOM      5  C3  UNK     1      40.323  14.786  -0.846  1.00  0.00     0.090 A 
ATOM      6  C4  UNK     1      39.482  17.029  -0.407  1.00  0.00     0.190 A 
ATOM      7  C6  UNK     1      39.741  18.686  -2.251  1.00  0.00     0.085 A 
ATOM      8  C7  UNK     1      39.726  15.633   0.008  1.00  0.00     0.094 A 
ATOM      9  C8  UNK     1      40.951  16.732  -3.846  1.00  0.00     0.075 A 
ATOM     10  C9  UNK     1      40.772  18.025  -4.338  1.00  0.00     0.071 A 
ATOM     11  C10 UNK     1      40.167  19.000  -3.542  1.00  0.00     0.074 A 
ENDROOT
BRANCH   5  12
ATOM     12  C5  UNK     1      40.583  13.378  -0.490  1.00  0.00    -0.002 A 
ATOM     13  C12 UNK     1      40.180  12.883   0.753  1.00  0.00     0.014 A 
ATOM     14  C14 UNK     1      40.425  11.551   1.091  1.00  0.00     0.001 A 
ATOM     15  C15 UNK     1      41.074  10.711   0.187  1.00  0.00     0.000 A 
ATOM     16  C13 UNK     1      41.478  11.202  -1.055  1.00  0.00     0.001 A 
ATOM     17  C11 UNK     1      41.233  12.532  -1.393  1.00  0.00     0.014 A 
ENDBRANCH   5  12
BRANCH  10  18
ATOM     18  O4  UNK     1      41.185  18.337  -5.597  1.00  0.00    -0.361 OA
ATOM     19  H10 UNK     1      40.995  17.587  -6.186  1.00  0.00     0.217 HD
ENDBRANCH  10  18
BRANCH   7  20
ATOM     20  O2  UNK     1      39.157  19.673  -1.516  1.00  0.00    -0.360 OA
ATOM     21  H9  UNK     1      38.197  19.674  -1.651  1.00  0.00     0.217 HD
ENDBRANCH   7  20
TORSDOF 3
ENDMDL
MODEL 3
REMARK VINA RESULT:      -6.7      1.960      6.194
REMARK  3 active torsions:
REMARK  status: ('A' for Active; 'I' for Inactive)
REMARK    1  A    between atoms: O2_2  and  C6_10 
REMARK    2  A    between atoms: O4_4  and  C9_13 
REMARK    3  A    between atoms: C3_7  and  C5_9 
ROOT
ATOM      1  O1  UNK     1      39.450  15.245  -0.129  1.00  0.00    -0.309 OA
ATOM      2  O3  UNK     1      42.479  14.712  -2.800  1.00  0.00    -0.287 OA
ATOM      3  C1  UNK     1      41.003  13.739  -1.233  1.00  0.00     0.081 A 
ATOM      4  C2  UNK     1      39.967  13.991  -0.336  1.00  0.00     0.095 A 
ATOM      5  C3  UNK     1      39.989  16.307  -0.838  1.00  0.00     0.090 A 
ATOM      6  C4  UNK     1      41.571  14.861  -1.995  1.00  0.00     0.190 A 
ATOM      7  C6  UNK     1      41.490  12.441  -1.404  1.00  0.00     0.085 A 
ATOM      8  C7  UNK     1      40.982  16.191  -1.734  1.00  0.00     0.094 A 
ATOM      9  C8  UNK     1      39.409  12.944   0.398  1.00  0.00     0.075 A 
ATOM     10  C9  UNK     1      39.892  11.645   0.231  1.00  0.00     0.071 A 
ATOM     11  C10 UNK     1      40.930  11.395  -0.669  1.00  0.00     0.074 A 
ENDROOT
BRANCH   5  12
ATOM     12  C5  UNK     1      39.356  17.608  -0.545  1.00  0.00    -0.002 A 
ATOM     13  C12 UNK     1      39.526  18.684  -1.420  1.00  0.00     0.014 A 
ATOM     14  C14 UNK     1      38.929  19.915  -1.143  1.00  0.00     0.001 A 
ATOM     15  C15 UNK     1      38.160  20.073   0.009  1.00  0.00     0.000 A 
ATOM     16  C13 UNK     1      37.988  19.001   0.886  1.00  0.00     0.001 A 
ATOM     17  C11 UNK     1      38.585  17.771   0.609  1.00  0.00     0.014 A 
ENDBRANCH   5  12
BRANCH  10  18
ATOM     18  O4  UNK     1      39.349  10.621   0.944  1.00  0.00    -0.361 OA
ATOM     19  H10 UNK     1      39.365   9.815   0.401  1.00  0.00     0.217 HD
ENDBRANCH  10  18
BRANCH   7  20
ATOM     20  O2  UNK     1      42.499  12.143  -2.268  1.00  0.00    -0.360 OA
ATOM     21  H9  UNK     1      42.221  11.456  -2.892  1.00  0.00     0.217 HD
ENDBRANCH   7  20
TORSDOF 3
ENDMDL
MODEL 4
REMARK VINA RESULT:      -6.3      2.247      6.361
REMARK  3 active torsions:
REMARK  status: ('A' for Active; 'I' for Inactive)
REMARK    1  A    between atoms: O2_2  and  C6_10 
REMARK    2  A    between atoms: O4_4  and  C9_13 
REMARK    3  A    between atoms: C3_7  and  C5_9 
ROOT
ATOM      1  O1  UNK     1      39.747  14.581  -0.151  1.00  0.00    -0.309 OA
ATOM      2  O3  UNK     1      42.494  13.008  -2.716  1.00  0.00    -0.287 OA
ATOM      3  C1  UNK     1      41.044  12.662  -0.882  1.00  0.00     0.081 A 
ATOM      4  C2  UNK     1      40.111  13.263  -0.039  1.00  0.00     0.095 A 
ATOM      5  C3  UNK     1      40.341  15.349  -1.141  1.00  0.00     0.090 A 
ATOM      6  C4  UNK     1      41.669  13.470  -1.940  1.00  0.00     0.190 A 
ATOM      7  C6  UNK     1      41.376  11.315  -0.723  1.00  0.00     0.085 A 
ATOM      8  C7  UNK     1      41.247  14.884  -2.017  1.00  0.00     0.094 A 
ATOM      9  C8  UNK     1      39.502  12.518   0.970  1.00  0.00     0.075 A 
ATOM     10  C9  UNK     1      39.831  11.172   1.134  1.00  0.00     0.071 A 
ATOM     11  C10 UNK     1      40.766  10.572   0.288  1.00  0.00     0.074 A 
ENDROOT
BRANCH   5  12
ATOM     12  C5  UNK     1      39.874  16.749  -1.177  1.00  0.00    -0.002 A 
ATOM     13  C12 UNK     1      40.198  17.569  -2.261  1.00  0.00     0.014 A 
ATOM     14  C14 UNK     1      39.758  18.892  -2.295  1.00  0.00     0.001 A 
ATOM     15  C15 UNK     1      38.991  19.400  -1.246  1.00  0.00     0.000 A 
ATOM     16  C13 UNK     1      38.666  18.584  -0.162  1.00  0.00     0.001 A 
ATOM     17  C11 UNK     1      39.106  17.261  -0.128  1.00  0.00     0.014 A 
ENDBRANCH   5  12
BRANCH  10  18
ATOM     18  O4  UNK     1      39.237  10.442   2.118  1.00  0.00    -0.361 OA
ATOM     19  H10 UNK     1      39.390  10.881   2.972  1.00  0.00     0.217 HD
ENDBRANCH  10  18
BRANCH   7  20
ATOM     20  O2  UNK     1      42.281  10.682  -1.520  1.00  0.00    -0.360 OA
ATOM     21  H9  UNK     1      42.797  11.328  -2.027  1.00  0.00     0.217 HD
ENDBRANCH   7  20
TORSDOF 3
ENDMDL
MODEL 5
REMARK VINA RESULT:      -5.6      9.954     12.006
REMARK  3 active torsions:
REMARK  status: ('A' for Active; 'I' for Inactive)
REMARK    1  A    between atoms: O2_2  and  C6_10 
REMARK    2  A    between atoms: O4_4  and  C9_13 
REMARK    3  A    between atoms: C3_7  and  C5_9 
ROOT
ATOM      1  O1  UNK     1      46.258  11.550  -7.580  1.00  0.00    -0.309 OA
ATOM      2  O3  UNK     1      48.244   8.160  -8.659  1.00  0.00    -0.287 OA
ATOM      3  C1  UNK     1      46.240   9.411  -8.732  1.00  0.00     0.081 A 
ATOM      4  C2  UNK     1      45.621  10.593  -8.330  1.00  0.00     0.095 A 
ATOM      5  C3  UNK     1      47.572  11.325  -7.201  1.00  0.00     0.090 A 
ATOM      6  C4  UNK     1      47.637   9.173  -8.340  1.00  0.00     0.190 A 
ATOM      7  C6  UNK     1      45.543   8.472  -9.495  1.00  0.00     0.085 A 
ATOM      8  C7  UNK     1      48.277  10.231  -7.531  1.00  0.00     0.094 A 
ATOM      9  C8  UNK     1      44.297  10.844  -8.690  1.00  0.00     0.075 A 
ATOM     10  C9  UNK     1      43.596   9.909  -9.452  1.00  0.00     0.071 A 
ATOM     11  C10 UNK     1      44.218   8.726  -9.854  1.00  0.00     0.074 A 
ENDROOT
BRANCH   5  12
ATOM     12  C5  UNK     1      48.163  12.418  -6.404  1.00  0.00    -0.002 A 
ATOM     13  C12 UNK     1      47.765  12.614  -5.079  1.00  0.00     0.014 A 
ATOM     14  C14 UNK     1      48.322  13.648  -4.325  1.00  0.00     0.001 A 
ATOM     15  C15 UNK     1      49.280  14.488  -4.893  1.00  0.00     0.000 A 
ATOM     16  C13 UNK     1      49.679  14.294  -6.216  1.00  0.00     0.001 A 
ATOM     17  C11 UNK     1      49.123  13.262  -6.969  1.00  0.00     0.014 A 
ENDBRANCH   5  12
BRANCH  10  18
ATOM     18  O4  UNK     1      42.304  10.152  -9.806  1.00  0.00    -0.361 OA
ATOM     19  H10 UNK     1      41.744   9.432  -9.469  1.00  0.00     0.217 HD
ENDBRANCH  10  18
BRANCH   7  20
ATOM     20  O2  UNK     1      46.103   7.303  -9.913  1.00  0.00    -0.360 OA
ATOM     21  H9  UNK     1      45.666   6.985 -10.717  1.00  0.00     0.217 HD
ENDBRANCH   7  20
TORSDOF 3
ENDMDL
MODEL 6
REMARK VINA RESULT:      -5.6      9.971     12.070
REMARK  3 active torsions:
REMARK  status: ('A' for Active; 'I' for Inactive)
REMARK    1  A    between atoms: O2_2  and  C6_10 
REMARK    2  A    between atoms: O4_4  and  C9_13 
REMARK    3  A    between atoms: C3_7  and  C5_9 
ROOT
ATOM      1  O1  UNK     1      46.253  11.519  -7.584  1.00  0.00    -0.309 OA
ATOM      2  O3  UNK     1      48.255   8.156  -8.718  1.00  0.00    -0.287 OA
ATOM      3  C1  UNK     1      46.239   9.390  -8.754  1.00  0.00     0.081 A 
ATOM      4  C2  UNK     1      45.615  10.563  -8.333  1.00  0.00     0.095 A 
ATOM      5  C3  UNK     1      47.575  11.303  -7.224  1.00  0.00     0.090 A 
ATOM      6  C4  UNK     1      47.643   9.161  -8.382  1.00  0.00     0.190 A 
ATOM      7  C6  UNK     1      45.540   8.451  -9.515  1.00  0.00     0.085 A 
ATOM      8  C7  UNK     1      48.285  10.218  -7.573  1.00  0.00     0.094 A 
ATOM      9  C8  UNK     1      44.284  10.805  -8.674  1.00  0.00     0.075 A 
ATOM     10  C9  UNK     1      43.582   9.870  -9.435  1.00  0.00     0.071 A 
ATOM     11  C10 UNK     1      44.209   8.696  -9.855  1.00  0.00     0.074 A 
ENDROOT
BRANCH   5  12
ATOM     12  C5  UNK     1      48.166  12.395  -6.426  1.00  0.00    -0.002 A 
ATOM     13  C12 UNK     1      49.129  13.235  -6.991  1.00  0.00     0.014 A 
ATOM     14  C14 UNK     1      49.689  14.267  -6.237  1.00  0.00     0.001 A 
ATOM     15  C15 UNK     1      49.287  14.462  -4.915  1.00  0.00     0.000 A 
ATOM     16  C13 UNK     1      48.326  13.625  -4.348  1.00  0.00     0.001 A 
ATOM     17  C11 UNK     1      47.767  12.594  -5.102  1.00  0.00     0.014 A 
ENDBRANCH   5  12
BRANCH  10  18
ATOM     18  O4  UNK     1      42.283  10.104  -9.770  1.00  0.00    -0.361 OA
ATOM     19  H10 UNK     1      41.737  10.059  -8.967  1.00  0.00     0.217 HD
ENDBRANCH  10  18
BRANCH   7  20
ATOM     20  O2  UNK     1      46.106   7.291  -9.950  1.00  0.00    -0.360 OA
ATOM     21  H9  UNK     1      45.429   6.609 -10.074  1.00  0.00     0.217 HD
ENDBRANCH   7  20
TORSDOF 3
ENDMDL
MODEL 7
REMARK VINA RESULT:      -5.4     11.205     13.491
REMARK  3 active torsions:
REMARK  status: ('A' for Active; 'I' for Inactive)
REMARK    1  A    between atoms: O2_2  and  C6_10 
REMARK    2  A    between atoms: O4_4  and  C9_13 
REMARK    3  A    between atoms: C3_7  and  C5_9 
ROOT
ATOM      1  O1  UNK     1      40.353  14.377 -13.552  1.00  0.00    -0.309 OA
ATOM      2  O3  UNK     1      39.991  10.635 -11.983  1.00  0.00    -0.287 OA
ATOM      3  C1  UNK     1      39.239  12.219 -13.567  1.00  0.00     0.081 A 
ATOM      4  C2  UNK     1      39.415  13.511 -14.057  1.00  0.00     0.095 A 
ATOM      5  C3  UNK     1      41.152  13.948 -12.504  1.00  0.00     0.090 A 
ATOM      6  C4  UNK     1      40.090  11.756 -12.461  1.00  0.00     0.190 A 
ATOM      7  C6  UNK     1      38.268  11.380 -14.119  1.00  0.00     0.085 A 
ATOM      8  C7  UNK     1      41.081  12.726 -11.951  1.00  0.00     0.094 A 
ATOM      9  C8  UNK     1      38.622  13.974 -15.107  1.00  0.00     0.075 A 
ATOM     10  C9  UNK     1      37.651  13.139 -15.662  1.00  0.00     0.071 A 
ATOM     11  C10 UNK     1      37.476  11.845 -15.169  1.00  0.00     0.074 A 
ENDROOT
BRANCH   5  12
ATOM     12  C5  UNK     1      42.128  14.954 -12.042  1.00  0.00    -0.002 A 
ATOM     13  C12 UNK     1      42.313  15.176 -10.675  1.00  0.00     0.014 A 
ATOM     14  C14 UNK     1      43.236  16.128 -10.238  1.00  0.00     0.001 A 
ATOM     15  C15 UNK     1      43.977  16.858 -11.166  1.00  0.00     0.000 A 
ATOM     16  C13 UNK     1      43.795  16.638 -12.531  1.00  0.00     0.001 A 
ATOM     17  C11 UNK     1      42.873  15.688 -12.969  1.00  0.00     0.014 A 
ENDBRANCH   5  12
BRANCH  10  18
ATOM     18  O4  UNK     1      36.875  13.588 -16.688  1.00  0.00    -0.361 OA
ATOM     19  H10 UNK     1      37.179  13.178 -17.515  1.00  0.00     0.217 HD
ENDBRANCH  10  18
BRANCH   7  20
ATOM     20  O2  UNK     1      38.057  10.110 -13.676  1.00  0.00    -0.360 OA
ATOM     21  H9  UNK     1      38.887   9.714 -13.371  1.00  0.00     0.217 HD
ENDBRANCH   7  20
TORSDOF 3
ENDMDL
MODEL 8
REMARK VINA RESULT:      -5.4      9.759     11.397
REMARK  3 active torsions:
REMARK  status: ('A' for Active; 'I' for Inactive)
REMARK    1  A    between atoms: O2_2  and  C6_10 
REMARK    2  A    between atoms: O4_4  and  C9_13 
REMARK    3  A    between atoms: C3_7  and  C5_9 
ROOT
ATOM      1  O1  UNK     1      47.193  12.032  -7.032  1.00  0.00    -0.309 OA
ATOM      2  O3  UNK     1      50.563  12.874  -9.161  1.00  0.00    -0.287 OA
ATOM      3  C1  UNK     1      49.321  13.195  -7.176  1.00  0.00     0.081 A 
ATOM      4  C2  UNK     1      48.147  12.865  -6.502  1.00  0.00     0.095 A 
ATOM      5  C3  UNK     1      47.406  11.503  -8.296  1.00  0.00     0.090 A 
ATOM      6  C4  UNK     1      49.555  12.629  -8.513  1.00  0.00     0.190 A 
ATOM      7  C6  UNK     1      50.257  14.048  -6.588  1.00  0.00     0.085 A 
ATOM      8  C7  UNK     1      48.498  11.741  -9.040  1.00  0.00     0.094 A 
ATOM      9  C8  UNK     1      47.901  13.386  -5.232  1.00  0.00     0.075 A 
ATOM     10  C9  UNK     1      48.834  14.239  -4.641  1.00  0.00     0.071 A 
ATOM     11  C10 UNK     1      50.009  14.569  -5.318  1.00  0.00     0.074 A 
ENDROOT
BRANCH   5  12
ATOM     12  C5  UNK     1      46.323  10.617  -8.766  1.00  0.00    -0.002 A 
ATOM     13  C12 UNK     1      46.630   9.394  -9.368  1.00  0.00     0.014 A 
ATOM     14  C14 UNK     1      45.607   8.555  -9.813  1.00  0.00     0.001 A 
ATOM     15  C15 UNK     1      44.275   8.937  -9.658  1.00  0.00     0.000 A 
ATOM     16  C13 UNK     1      43.965  10.158  -9.058  1.00  0.00     0.001 A 
ATOM     17  C11 UNK     1      44.987  10.996  -8.612  1.00  0.00     0.014 A 
ENDBRANCH   5  12
BRANCH  10  18
ATOM     18  O4  UNK     1      48.598  14.749  -3.400  1.00  0.00    -0.361 OA
ATOM     19  H10 UNK     1      48.445  15.706  -3.477  1.00  0.00     0.217 HD
ENDBRANCH  10  18
BRANCH   7  20
ATOM     20  O2  UNK     1      51.419  14.401  -7.206  1.00  0.00    -0.360 OA
ATOM     21  H9  UNK     1      51.345  15.289  -7.586  1.00  0.00     0.217 HD
ENDBRANCH   7  20
TORSDOF 3
ENDMDL
MODEL 9
REMARK VINA RESULT:      -5.2     10.345     12.361
REMARK  3 active torsions:
REMARK  status: ('A' for Active; 'I' for Inactive)
REMARK    1  A    between atoms: O2_2  and  C6_10 
REMARK    2  A    between atoms: O4_4  and  C9_13 
REMARK    3  A    between atoms: C3_7  and  C5_9 
ROOT
ATOM      1  O1  UNK     1      48.028  11.426  -5.900  1.00  0.00    -0.309 OA
ATOM      2  O3  UNK     1      51.039   8.859  -6.873  1.00  0.00    -0.287 OA
ATOM      3  C1  UNK     1      50.038  10.235  -5.233  1.00  0.00     0.081 A 
ATOM      4  C2  UNK     1      48.982  11.104  -4.966  1.00  0.00     0.095 A 
ATOM      5  C3  UNK     1      48.127  10.867  -7.164  1.00  0.00     0.090 A 
ATOM      6  C4  UNK     1      50.141   9.632  -6.570  1.00  0.00     0.190 A 
ATOM      7  C6  UNK     1      50.980   9.943  -4.244  1.00  0.00     0.085 A 
ATOM      8  C7  UNK     1      49.092  10.012  -7.540  1.00  0.00     0.094 A 
ATOM      9  C8  UNK     1      48.860  11.688  -3.705  1.00  0.00     0.075 A 
ATOM     10  C9  UNK     1      49.799  11.400  -2.714  1.00  0.00     0.071 A 
ATOM     11  C10 UNK     1      50.856  10.528  -2.983  1.00  0.00     0.074 A 
ENDROOT
BRANCH   5  12
ATOM     12  C5  UNK     1      47.049  11.274  -8.087  1.00  0.00    -0.002 A 
ATOM     13  C12 UNK     1      47.332  11.512  -9.434  1.00  0.00     0.014 A 
ATOM     14  C14 UNK     1      46.313  11.898 -10.307  1.00  0.00     0.001 A 
ATOM     15  C15 UNK     1      45.009  12.045  -9.835  1.00  0.00     0.000 A 
ATOM     16  C13 UNK     1      44.723  11.808  -8.490  1.00  0.00     0.001 A 
ATOM     17  C11 UNK     1      45.741  11.423  -7.618  1.00  0.00     0.014 A 
ENDBRANCH   5  12
BRANCH  10  18
ATOM     18  O4  UNK     1      49.682  11.967  -1.482  1.00  0.00    -0.361 OA
ATOM     19  H10 UNK     1      48.836  11.696  -1.089  1.00  0.00     0.217 HD
ENDBRANCH  10  18
BRANCH   7  20
ATOM     20  O2  UNK     1      52.028   9.100  -4.455  1.00  0.00    -0.360 OA
ATOM     21  H9  UNK     1      52.520   8.957  -3.632  1.00  0.00     0.217 HD
ENDBRANCH   7  20
TORSDOF 3
ENDMDL
MODEL 10
REMARK VINA RESULT:      -5.2     10.532     12.979
REMARK  3 active torsions:
REMARK  status: ('A' for Active; 'I' for Inactive)
REMARK    1  A    between atoms: O2_2  and  C6_10 
REMARK    2  A    between atoms: O4_4  and  C9_13 
REMARK    3  A    between atoms: C3_7  and  C5_9 
ROOT
ATOM      1  O1  UNK     1      50.336  11.273  -2.248  1.00  0.00    -0.309 OA
ATOM      2  O3  UNK     1      52.641   8.803  -4.525  1.00  0.00    -0.287 OA
ATOM      3  C1  UNK     1      50.650  10.060  -4.329  1.00  0.00     0.081 A 
ATOM      4  C2  UNK     1      49.912  10.903  -3.499  1.00  0.00     0.095 A 
ATOM      5  C3  UNK     1      51.548  10.781  -1.789  1.00  0.00     0.090 A 
ATOM      6  C4  UNK     1      51.940   9.544  -3.850  1.00  0.00     0.190 A 
ATOM      7  C6  UNK     1      50.168   9.716  -5.595  1.00  0.00     0.085 A 
ATOM      8  C7  UNK     1      52.351   9.969  -2.496  1.00  0.00     0.094 A 
ATOM      9  C8  UNK     1      48.686  11.408  -3.931  1.00  0.00     0.075 A 
ATOM     10  C9  UNK     1      48.201  11.067  -5.194  1.00  0.00     0.071 A 
ATOM     11  C10 UNK     1      48.941  10.223  -6.024  1.00  0.00     0.074 A 
ENDROOT
BRANCH   5  12
ATOM     12  C5  UNK     1      51.912  11.247  -0.436  1.00  0.00    -0.002 A 
ATOM     13  C12 UNK     1      53.246  11.519  -0.123  1.00  0.00     0.014 A 
ATOM     14  C14 UNK     1      53.590  11.959   1.156  1.00  0.00     0.001 A 
ATOM     15  C15 UNK     1      52.602  12.128   2.125  1.00  0.00     0.000 A 
ATOM     16  C13 UNK     1      51.269  11.857   1.815  1.00  0.00     0.001 A 
ATOM     17  C11 UNK     1      50.924  11.418   0.538  1.00  0.00     0.014 A 
ENDBRANCH   5  12
BRANCH  10  18
ATOM     18  O4  UNK     1      47.004  11.560  -5.619  1.00  0.00    -0.361 OA
ATOM     19  H10 UNK     1      46.912  12.475  -5.307  1.00  0.00     0.217 HD
ENDBRANCH  10  18
BRANCH   7  20
ATOM     20  O2  UNK     1      50.852   8.898  -6.442  1.00  0.00    -0.360 OA
ATOM     21  H9  UNK     1      50.237   8.395  -6.997  1.00  0.00     0.217 HD
ENDBRANCH   7  20
TORSDOF 3
ENDMDL
MODEL 11
REMARK VINA RESULT:      -5.2     10.287     12.029
REMARK  3 active torsions:
REMARK  status: ('A' for Active; 'I' for Inactive)
REMARK    1  A    between atoms: O2_2  and  C6_10 
REMARK    2  A    between atoms: O4_4  and  C9_13 
REMARK    3  A    between atoms: C3_7  and  C5_9 
ROOT
ATOM      1  O1  UNK     1      48.555   9.989  -6.588  1.00  0.00    -0.309 OA
ATOM      2  O3  UNK     1      47.752  13.927  -5.915  1.00  0.00    -0.287 OA
ATOM      3  C1  UNK     1      48.704  11.916  -5.117  1.00  0.00     0.081 A 
ATOM      4  C2  UNK     1      48.948  10.576  -5.411  1.00  0.00     0.095 A 
ATOM      5  C3  UNK     1      47.880  10.763  -7.519  1.00  0.00     0.090 A 
ATOM      6  C4  UNK     1      47.997  12.743  -6.105  1.00  0.00     0.190 A 
ATOM      7  C6  UNK     1      49.128  12.461  -3.902  1.00  0.00     0.085 A 
ATOM      8  C7  UNK     1      47.592  12.065  -7.354  1.00  0.00     0.094 A 
ATOM      9  C8  UNK     1      49.619   9.771  -4.491  1.00  0.00     0.075 A 
ATOM     10  C9  UNK     1      50.043  10.311  -3.277  1.00  0.00     0.071 A 
ATOM     11  C10 UNK     1      49.799  11.653  -2.984  1.00  0.00     0.074 A 
ENDROOT
BRANCH   5  12
ATOM     12  C5  UNK     1      47.510  10.036  -8.749  1.00  0.00    -0.002 A 
ATOM     13  C12 UNK     1      47.197   8.675  -8.692  1.00  0.00     0.014 A 
ATOM     14  C14 UNK     1      46.848   7.987  -9.855  1.00  0.00     0.001 A 
ATOM     15  C15 UNK     1      46.809   8.658 -11.077  1.00  0.00     0.000 A 
ATOM     16  C13 UNK     1      47.120  10.017 -11.137  1.00  0.00     0.001 A 
ATOM     17  C11 UNK     1      47.469  10.704  -9.976  1.00  0.00     0.014 A 
ENDBRANCH   5  12
BRANCH  10  18
ATOM     18  O4  UNK     1      50.700   9.527  -2.377  1.00  0.00    -0.361 OA
ATOM     19  H10 UNK     1      51.650   9.726  -2.419  1.00  0.00     0.217 HD
ENDBRANCH  10  18
BRANCH   7  20
ATOM     20  O2  UNK     1      48.914  13.764  -3.568  1.00  0.00    -0.360 OA
ATOM     21  H9  UNK     1      48.436  13.825  -2.727  1.00  0.00     0.217 HD
ENDBRANCH   7  20
TORSDOF 3
ENDMDL
MODEL 12
REMARK VINA RESULT:      -5.2     10.401     13.084
REMARK  3 active torsions:
REMARK  status: ('A' for Active; 'I' for Inactive)
REMARK    1  A    between atoms: O2_2  and  C6_10 
REMARK    2  A    between atoms: O4_4  and  C9_13 
REMARK    3  A    between atoms: C3_7  and  C5_9 
ROOT
ATOM      1  O1  UNK     1      43.320  12.037 -11.720  1.00  0.00    -0.309 OA
ATOM      2  O3  UNK     1      44.856  10.181  -8.434  1.00  0.00    -0.287 OA
ATOM      3  C1  UNK     1      43.741   9.974 -10.508  1.00  0.00     0.081 A 
ATOM      4  C2  UNK     1      43.238  10.672 -11.604  1.00  0.00     0.095 A 
ATOM      5  C3  UNK     1      43.923  12.751 -10.697  1.00  0.00     0.090 A 
ATOM      6  C4  UNK     1      44.390  10.728  -9.424  1.00  0.00     0.190 A 
ATOM      7  C6  UNK     1      43.630   8.584 -10.443  1.00  0.00     0.085 A 
ATOM      8  C7  UNK     1      44.451  12.194  -9.595  1.00  0.00     0.094 A 
ATOM      9  C8  UNK     1      42.620   9.981 -12.647  1.00  0.00     0.075 A 
ATOM     10  C9  UNK     1      42.506   8.591 -12.586  1.00  0.00     0.071 A 
ATOM     11  C10 UNK     1      43.011   7.895 -11.487  1.00  0.00     0.074 A 
ENDROOT
BRANCH   5  12
ATOM     12  C5  UNK     1      43.964  14.209 -10.925  1.00  0.00    -0.002 A 
ATOM     13  C12 UNK     1      43.262  15.072 -10.079  1.00  0.00     0.014 A 
ATOM     14  C14 UNK     1      43.300  16.450 -10.294  1.00  0.00     0.001 A 
ATOM     15  C15 UNK     1      44.039  16.970 -11.356  1.00  0.00     0.000 A 
ATOM     16  C13 UNK     1      44.741  16.111 -12.204  1.00  0.00     0.001 A 
ATOM     17  C11 UNK     1      44.703  14.734 -11.988  1.00  0.00     0.014 A 
ENDBRANCH   5  12
BRANCH  10  18
ATOM     18  O4  UNK     1      41.904   7.914 -13.602  1.00  0.00    -0.361 OA
ATOM     19  H10 UNK     1      41.353   7.207 -13.226  1.00  0.00     0.217 HD
ENDBRANCH  10  18
BRANCH   7  20
ATOM     20  O2  UNK     1      44.106   7.857  -9.394  1.00  0.00    -0.360 OA
ATOM     21  H9  UNK     1      43.564   8.007  -8.604  1.00  0.00     0.217 HD
ENDBRANCH   7  20
TORSDOF 3
ENDMDL
MODEL 13
REMARK VINA RESULT:      -5.2     10.492     12.901
REMARK  3 active torsions:
REMARK  status: ('A' for Active; 'I' for Inactive)
REMARK    1  A    between atoms: O2_2  and  C6_10 
REMARK    2  A    between atoms: O4_4  and  C9_13 
REMARK    3  A    between atoms: C3_7  and  C5_9 
ROOT
ATOM      1  O1  UNK     1      50.984  10.149  -3.731  1.00  0.00    -0.309 OA
ATOM      2  O3  UNK     1      47.433  11.907  -4.681  1.00  0.00    -0.287 OA
ATOM      3  C1  UNK     1      49.173  10.442  -5.323  1.00  0.00     0.081 A 
ATOM      4  C2  UNK     1      50.386   9.875  -4.935  1.00  0.00     0.095 A 
ATOM      5  C3  UNK     1      50.357  11.034  -2.868  1.00  0.00     0.090 A 
ATOM      6  C4  UNK     1      48.500  11.374  -4.407  1.00  0.00     0.190 A 
ATOM      7  C6  UNK     1      48.610  10.127  -6.562  1.00  0.00     0.085 A 
ATOM      8  C7  UNK     1      49.186  11.638  -3.125  1.00  0.00     0.094 A 
ATOM      9  C8  UNK     1      51.044   8.986  -5.785  1.00  0.00     0.075 A 
ATOM     10  C9  UNK     1      50.485   8.669  -7.024  1.00  0.00     0.071 A 
ATOM     11  C10 UNK     1      49.270   9.237  -7.410  1.00  0.00     0.074 A 
ENDROOT
BRANCH   5  12
ATOM     12  C5  UNK     1      51.081  11.252  -1.600  1.00  0.00    -0.002 A 
ATOM     13  C12 UNK     1      50.375  11.543  -0.430  1.00  0.00     0.014 A 
ATOM     14  C14 UNK     1      51.059  11.749   0.769  1.00  0.00     0.001 A 
ATOM     15  C15 UNK     1      52.451  11.665   0.801  1.00  0.00     0.000 A 
ATOM     16  C13 UNK     1      53.159  11.375  -0.366  1.00  0.00     0.001 A 
ATOM     17  C11 UNK     1      52.475  11.168  -1.564  1.00  0.00     0.014 A 
ENDBRANCH   5  12
BRANCH  10  18
ATOM     18  O4  UNK     1      51.124   7.800  -7.855  1.00  0.00    -0.361 OA
ATOM     19  H10 UNK     1      52.083   7.949  -7.789  1.00  0.00     0.217 HD
ENDBRANCH  10  18
BRANCH   7  20
ATOM     20  O2  UNK     1      47.428  10.654  -6.986  1.00  0.00    -0.360 OA
ATOM     21  H9  UNK     1      46.831   9.951  -7.285  1.00  0.00     0.217 HD
ENDBRANCH   7  20
TORSDOF 3
ENDMDL
MODEL 14
REMARK VINA RESULT:      -5.2     10.698     12.096
REMARK  3 active torsions:
REMARK  status: ('A' for Active; 'I' for Inactive)
REMARK    1  A    between atoms: O2_2  and  C6_10 
REMARK    2  A    between atoms: O4_4  and  C9_13 
REMARK    3  A    between atoms: C3_7  and  C5_9 
ROOT
ATOM      1  O1  UNK     1      48.403  10.577  -5.960  1.00  0.00    -0.309 OA
ATOM      2  O3  UNK     1      50.474  14.028  -6.588  1.00  0.00    -0.287 OA
ATOM      3  C1  UNK     1      50.217  12.056  -5.312  1.00  0.00     0.081 A 
ATOM      4  C2  UNK     1      49.467  10.892  -5.153  1.00  0.00     0.095 A 
ATOM      5  C3  UNK     1      48.056  11.459  -6.971  1.00  0.00     0.090 A 
ATOM      6  C4  UNK     1      49.859  12.990  -6.389  1.00  0.00     0.190 A 
ATOM      7  C6  UNK     1      51.291  12.326  -4.461  1.00  0.00     0.085 A 
ATOM      8  C7  UNK     1      48.704  12.607  -7.228  1.00  0.00     0.094 A 
ATOM      9  C8  UNK     1      49.788   9.988  -4.140  1.00  0.00     0.075 A 
ATOM     10  C9  UNK     1      50.860  10.254  -3.287  1.00  0.00     0.071 A 
ATOM     11  C10 UNK     1      51.610  11.420  -3.448  1.00  0.00     0.074 A 
ENDROOT
BRANCH   5  12
ATOM     12  C5  UNK     1      46.903  11.020  -7.782  1.00  0.00    -0.002 A 
ATOM     13  C12 UNK     1      45.752  11.809  -7.848  1.00  0.00     0.014 A 
ATOM     14  C14 UNK     1      44.661  11.395  -8.614  1.00  0.00     0.001 A 
ATOM     15  C15 UNK     1      44.719  10.191  -9.316  1.00  0.00     0.000 A 
ATOM     16  C13 UNK     1      45.867   9.401  -9.252  1.00  0.00     0.001 A 
ATOM     17  C11 UNK     1      46.957   9.815  -8.487  1.00  0.00     0.014 A 
ENDBRANCH   5  12
BRANCH  10  18
ATOM     18  O4  UNK     1      51.176   9.373  -2.298  1.00  0.00    -0.361 OA
ATOM     19  H10 UNK     1      50.650   9.584  -1.508  1.00  0.00     0.217 HD
ENDBRANCH  10  18
BRANCH   7  20
ATOM     20  O2  UNK     1      52.055  13.448  -4.575  1.00  0.00    -0.360 OA
ATOM     21  H9  UNK     1      51.904  14.040  -3.822  1.00  0.00     0.217 HD
ENDBRANCH   7  20
TORSDOF 3
ENDMDL
MODEL 15
REMARK VINA RESULT:      -5.1     11.856     14.332
REMARK  3 active torsions:
REMARK  status: ('A' for Active; 'I' for Inactive)
REMARK    1  A    between atoms: O2_2  and  C6_10 
REMARK    2  A    between atoms: O4_4  and  C9_13 
REMARK    3  A    between atoms: C3_7  and  C5_9 
ROOT
ATOM      1  O1  UNK     1      52.071   8.898  -4.007  1.00  0.00    -0.309 OA
ATOM      2  O3  UNK     1      51.955  11.052  -0.551  1.00  0.00    -0.287 OA
ATOM      3  C1  UNK     1      50.940  10.543  -2.624  1.00  0.00     0.081 A 
ATOM      4  C2  UNK     1      51.040   9.775  -3.782  1.00  0.00     0.095 A 
ATOM      5  C3  UNK     1      53.059   8.777  -3.042  1.00  0.00     0.090 A 
ATOM      6  C4  UNK     1      51.981  10.411  -1.593  1.00  0.00     0.190 A 
ATOM      7  C6  UNK     1      49.868  11.420  -2.447  1.00  0.00     0.085 A 
ATOM      8  C7  UNK     1      53.070   9.457  -1.884  1.00  0.00     0.094 A 
ATOM      9  C8  UNK     1      50.065   9.879  -4.774  1.00  0.00     0.075 A 
ATOM     10  C9  UNK     1      48.992  10.755  -4.603  1.00  0.00     0.071 A 
ATOM     11  C10 UNK     1      48.894  11.523  -3.441  1.00  0.00     0.074 A 
ENDROOT
BRANCH   5  12
ATOM     12  C5  UNK     1      54.115   7.804  -3.382  1.00  0.00    -0.002 A 
ATOM     13  C12 UNK     1      54.569   6.898  -2.419  1.00  0.00     0.014 A 
ATOM     14  C14 UNK     1      55.568   5.977  -2.739  1.00  0.00     0.001 A 
ATOM     15  C15 UNK     1      56.115   5.959  -4.022  1.00  0.00     0.000 A 
ATOM     16  C13 UNK     1      55.663   6.862  -4.985  1.00  0.00     0.001 A 
ATOM     17  C11 UNK     1      54.665   7.782  -4.666  1.00  0.00     0.014 A 
ENDBRANCH   5  12
BRANCH  10  18
ATOM     18  O4  UNK     1      48.038  10.858  -5.569  1.00  0.00    -0.361 OA
ATOM     19  H10 UNK     1      48.322  10.351  -6.348  1.00  0.00     0.217 HD
ENDBRANCH  10  18
BRANCH   7  20
ATOM     20  O2  UNK     1      49.725  12.191  -1.334  1.00  0.00    -0.360 OA
ATOM     21  H9  UNK     1      50.308  12.964  -1.379  1.00  0.00     0.217 HD
ENDBRANCH   7  20
TORSDOF 3
ENDMDL
MODEL 16
REMARK VINA RESULT:      -5.1     10.094     12.719
REMARK  3 active torsions:
REMARK  status: ('A' for Active; 'I' for Inactive)
REMARK    1  A    between atoms: O2_2  and  C6_10 
REMARK    2  A    between atoms: O4_4  and  C9_13 
REMARK    3  A    between atoms: C3_7  and  C5_9 
ROOT
ATOM      1  O1  UNK     1      47.770  10.126  -7.714  1.00  0.00    -0.309 OA
ATOM      2  O3  UNK     1      44.048  10.696  -9.272  1.00  0.00    -0.287 OA
ATOM      3  C1  UNK     1      45.973   9.331  -9.142  1.00  0.00     0.081 A 
ATOM      4  C2  UNK     1      47.238   9.198  -8.573  1.00  0.00     0.095 A 
ATOM      5  C3  UNK     1      47.016  11.248  -7.406  1.00  0.00     0.090 A 
ATOM      6  C4  UNK     1      45.167  10.515  -8.811  1.00  0.00     0.190 A 
ATOM      7  C6  UNK     1      45.483   8.354 -10.012  1.00  0.00     0.085 A 
ATOM      8  C7  UNK     1      45.784  11.486  -7.884  1.00  0.00     0.094 A 
ATOM      9  C8  UNK     1      48.022   8.083  -8.870  1.00  0.00     0.075 A 
ATOM     10  C9  UNK     1      47.536   7.104  -9.738  1.00  0.00     0.071 A 
ATOM     11  C10 UNK     1      46.269   7.240 -10.306  1.00  0.00     0.074 A 
ENDROOT
BRANCH   5  12
ATOM     12  C5  UNK     1      47.678  12.177  -6.469  1.00  0.00    -0.002 A 
ATOM     13  C12 UNK     1      47.544  11.997  -5.090  1.00  0.00     0.014 A 
ATOM     14  C14 UNK     1      48.169  12.876  -4.204  1.00  0.00     0.001 A 
ATOM     15  C15 UNK     1      48.931  13.936  -4.694  1.00  0.00     0.000 A 
ATOM     16  C13 UNK     1      49.067  14.119  -6.070  1.00  0.00     0.001 A 
ATOM     17  C11 UNK     1      48.442  13.241  -6.956  1.00  0.00     0.014 A 
ENDBRANCH   5  12
BRANCH  10  18
ATOM     18  O4  UNK     1      48.299   6.014 -10.028  1.00  0.00    -0.361 OA
ATOM     19  H10 UNK     1      47.762   5.378 -10.530  1.00  0.00     0.217 HD
ENDBRANCH  10  18
BRANCH   7  20
ATOM     20  O2  UNK     1      44.254   8.438 -10.592  1.00  0.00    -0.360 OA
ATOM     21  H9  UNK     1      43.638   8.916 -10.016  1.00  0.00     0.217 HD
ENDBRANCH   7  20
TORSDOF 3
ENDMDL
MODEL 17
REMARK VINA RESULT:      -5.1     10.235     12.641
REMARK  3 active torsions:
REMARK  status: ('A' for Active; 'I' for Inactive)
REMARK    1  A    between atoms: O2_2  and  C6_10 
REMARK    2  A    between atoms: O4_4  and  C9_13 
REMARK    3  A    between atoms: C3_7  and  C5_9 
ROOT
ATOM      1  O1  UNK     1      49.740   9.070  -5.681  1.00  0.00    -0.309 OA
ATOM      2  O3  UNK     1      47.911  11.856  -8.025  1.00  0.00    -0.287 OA
ATOM      3  C1  UNK     1      48.747  11.277  -5.892  1.00  0.00     0.081 A 
ATOM      4  C2  UNK     1      49.376  10.281  -5.147  1.00  0.00     0.095 A 
ATOM      5  C3  UNK     1      49.462   8.827  -7.017  1.00  0.00     0.090 A 
ATOM      6  C4  UNK     1      48.458  11.026  -7.312  1.00  0.00     0.190 A 
ATOM      7  C6  UNK     1      48.398  12.491  -5.296  1.00  0.00     0.085 A 
ATOM      8  C7  UNK     1      48.867   9.707  -7.838  1.00  0.00     0.094 A 
ATOM      9  C8  UNK     1      49.663  10.494  -3.799  1.00  0.00     0.075 A 
ATOM     10  C9  UNK     1      49.316  11.706  -3.199  1.00  0.00     0.071 A 
ATOM     11  C10 UNK     1      48.686  12.702  -3.947  1.00  0.00     0.074 A 
ENDROOT
BRANCH   5  12
ATOM     12  C5  UNK     1      49.900   7.499  -7.489  1.00  0.00    -0.002 A 
ATOM     13  C12 UNK     1      51.253   7.256  -7.742  1.00  0.00     0.014 A 
ATOM     14  C14 UNK     1      51.668   6.001  -8.190  1.00  0.00     0.001 A 
ATOM     15  C15 UNK     1      50.733   4.985  -8.384  1.00  0.00     0.000 A 
ATOM     16  C13 UNK     1      49.382   5.224  -8.132  1.00  0.00     0.001 A 
ATOM     17  C11 UNK     1      48.966   6.478  -7.685  1.00  0.00     0.014 A 
ENDBRANCH   5  12
BRANCH  10  18
ATOM     18  O4  UNK     1      49.596  11.918  -1.883  1.00  0.00    -0.361 OA
ATOM     19  H10 UNK     1      49.969  11.104  -1.506  1.00  0.00     0.217 HD
ENDBRANCH  10  18
BRANCH   7  20
ATOM     20  O2  UNK     1      47.783  13.495  -5.981  1.00  0.00    -0.360 OA
ATOM     21  H9  UNK     1      47.440  13.169  -6.826  1.00  0.00     0.217 HD
ENDBRANCH   7  20
TORSDOF 3
ENDMDL
MODEL 18
REMARK VINA RESULT:      -5.0     11.081     12.914
REMARK  3 active torsions:
REMARK  status: ('A' for Active; 'I' for Inactive)
REMARK    1  A    between atoms: O2_2  and  C6_10 
REMARK    2  A    between atoms: O4_4  and  C9_13 
REMARK    3  A    between atoms: C3_7  and  C5_9 
ROOT
ATOM      1  O1  UNK     1      44.644  12.832 -10.762  1.00  0.00    -0.309 OA
ATOM      2  O3  UNK     1      41.229  11.439 -12.491  1.00  0.00    -0.287 OA
ATOM      3  C1  UNK     1      43.022  11.040 -11.006  1.00  0.00     0.081 A 
ATOM      4  C2  UNK     1      44.182  11.578 -10.450  1.00  0.00     0.095 A 
ATOM      5  C3  UNK     1      43.929  13.592 -11.674  1.00  0.00     0.090 A 
ATOM      6  C4  UNK     1      42.256  11.846 -11.967  1.00  0.00     0.190 A 
ATOM      7  C6  UNK     1      42.599   9.757 -10.652  1.00  0.00     0.085 A 
ATOM      8  C7  UNK     1      42.796  13.188 -12.271  1.00  0.00     0.094 A 
ATOM      9  C8  UNK     1      44.926  10.835  -9.534  1.00  0.00     0.075 A 
ATOM     10  C9  UNK     1      44.507   9.553  -9.178  1.00  0.00     0.071 A 
ATOM     11  C10 UNK     1      43.345   9.016  -9.735  1.00  0.00     0.074 A 
ENDROOT
BRANCH   5  12
ATOM     12  C5  UNK     1      44.509  14.925 -11.932  1.00  0.00    -0.002 A 
ATOM     13  C12 UNK     1      45.780  15.038 -12.502  1.00  0.00     0.014 A 
ATOM     14  C14 UNK     1      46.330  16.297 -12.745  1.00  0.00     0.001 A 
ATOM     15  C15 UNK     1      45.610  17.447 -12.420  1.00  0.00     0.000 A 
ATOM     16  C13 UNK     1      44.341  17.337 -11.851  1.00  0.00     0.001 A 
ATOM     17  C11 UNK     1      43.792  16.079 -11.608  1.00  0.00     0.014 A 
ENDBRANCH   5  12
BRANCH  10  18
ATOM     18  O4  UNK     1      45.231   8.825  -8.282  1.00  0.00    -0.361 OA
ATOM     19  H10 UNK     1      45.978   8.411  -8.745  1.00  0.00     0.217 HD
ENDBRANCH  10  18
BRANCH   7  20
ATOM     20  O2  UNK     1      41.473   9.188 -11.166  1.00  0.00    -0.360 OA
ATOM     21  H9  UNK     1      41.615   8.244 -11.330  1.00  0.00     0.217 HD
ENDBRANCH   7  20
TORSDOF 3
ENDMDL
MODEL 19
REMARK VINA RESULT:      -5.0      9.835     12.205
REMARK  3 active torsions:
REMARK  status: ('A' for Active; 'I' for Inactive)
REMARK    1  A    between atoms: O2_2  and  C6_10 
REMARK    2  A    between atoms: O4_4  and  C9_13 
REMARK    3  A    between atoms: C3_7  and  C5_9 
ROOT
ATOM      1  O1  UNK     1      47.920  12.498  -7.723  1.00  0.00    -0.309 OA
ATOM      2  O3  UNK     1      48.907   8.858  -6.183  1.00  0.00    -0.287 OA
ATOM      3  C1  UNK     1      48.594  11.170  -5.805  1.00  0.00     0.081 A 
ATOM      4  C2  UNK     1      48.246  12.383  -6.395  1.00  0.00     0.095 A 
ATOM      5  C3  UNK     1      47.946  11.358  -8.511  1.00  0.00     0.090 A 
ATOM      6  C4  UNK     1      48.614   9.956  -6.635  1.00  0.00     0.190 A 
ATOM      7  C6  UNK     1      48.917  11.111  -4.447  1.00  0.00     0.085 A 
ATOM      8  C7  UNK     1      48.258  10.133  -8.058  1.00  0.00     0.094 A 
ATOM      9  C8  UNK     1      48.218  13.549  -5.629  1.00  0.00     0.075 A 
ATOM     10  C9  UNK     1      48.540  13.495  -4.273  1.00  0.00     0.071 A 
ATOM     11  C10 UNK     1      48.888  12.278  -3.683  1.00  0.00     0.074 A 
ENDROOT
BRANCH   5  12
ATOM     12  C5  UNK     1      47.573  11.593  -9.920  1.00  0.00    -0.002 A 
ATOM     13  C12 UNK     1      48.264  12.540 -10.680  1.00  0.00     0.014 A 
ATOM     14  C14 UNK     1      47.911  12.763 -12.012  1.00  0.00     0.001 A 
ATOM     15  C15 UNK     1      46.867  12.039 -12.587  1.00  0.00     0.000 A 
ATOM     16  C13 UNK     1      46.175  11.093 -11.831  1.00  0.00     0.001 A 
ATOM     17  C11 UNK     1      46.527  10.870 -10.500  1.00  0.00     0.014 A 
ENDBRANCH   5  12
BRANCH  10  18
ATOM     18  O4  UNK     1      48.512  14.631  -3.522  1.00  0.00    -0.361 OA
ATOM     19  H10 UNK     1      49.415  14.985  -3.453  1.00  0.00     0.217 HD
ENDBRANCH  10  18
BRANCH   7  20
ATOM     20  O2  UNK     1      49.263   9.950  -3.824  1.00  0.00    -0.360 OA
ATOM     21  H9  UNK     1      48.744   9.210  -4.173  1.00  0.00     0.217 HD
ENDBRANCH   7  20
TORSDOF 3
ENDMDL
MODEL 20
REMARK VINA RESULT:      -5.0     11.129     13.117
REMARK  3 active torsions:
REMARK  status: ('A' for Active; 'I' for Inactive)
REMARK    1  A    between atoms: O2_2  and  C6_10 
REMARK    2  A    between atoms: O4_4  and  C9_13 
REMARK    3  A    between atoms: C3_7  and  C5_9 
ROOT
ATOM      1  O1  UNK     1      50.515  14.164  -7.169  1.00  0.00    -0.309 OA
ATOM      2  O3  UNK     1      49.283  10.312  -6.673  1.00  0.00    -0.287 OA
ATOM      3  C1  UNK     1      49.163  12.558  -5.947  1.00  0.00     0.081 A 
ATOM      4  C2  UNK     1      49.624  13.854  -6.172  1.00  0.00     0.095 A 
ATOM      5  C3  UNK     1      50.980  13.142  -7.981  1.00  0.00     0.090 A 
ATOM      6  C4  UNK     1      49.647  11.472  -6.812  1.00  0.00     0.190 A 
ATOM      7  C6  UNK     1      48.256  12.299  -4.917  1.00  0.00     0.085 A 
ATOM      8  C7  UNK     1      50.606  11.857  -7.868  1.00  0.00     0.094 A 
ATOM      9  C8  UNK     1      49.179  14.902  -5.367  1.00  0.00     0.075 A 
ATOM     10  C9  UNK     1      48.273  14.649  -4.336  1.00  0.00     0.071 A 
ATOM     11  C10 UNK     1      47.813  13.350  -4.113  1.00  0.00     0.074 A 
ENDROOT
BRANCH   5  12
ATOM     12  C5  UNK     1      51.926  13.586  -9.023  1.00  0.00    -0.002 A 
ATOM     13  C12 UNK     1      52.089  12.834 -10.190  1.00  0.00     0.014 A 
ATOM     14  C14 UNK     1      52.984  13.253 -11.175  1.00  0.00     0.001 A 
ATOM     15  C15 UNK     1      53.718  14.426 -10.997  1.00  0.00     0.000 A 
ATOM     16  C13 UNK     1      53.558  15.179  -9.834  1.00  0.00     0.001 A 
ATOM     17  C11 UNK     1      52.663  14.760  -8.850  1.00  0.00     0.014 A 
ENDBRANCH   5  12
BRANCH  10  18
ATOM     18  O4  UNK     1      47.836  15.670  -3.549  1.00  0.00    -0.361 OA
ATOM     19  H10 UNK     1      48.593  16.042  -3.066  1.00  0.00     0.217 HD
ENDBRANCH  10  18
BRANCH   7  20
ATOM     20  O2  UNK     1      47.776  11.052  -4.657  1.00  0.00    -0.360 OA
ATOM     21  H9  UNK     1      48.123  10.414  -5.299  1.00  0.00     0.217 HD
ENDBRANCH   7  20
TORSDOF 3
ENDMDL
