MODEL 1
REMARK VINA RESULT:      -6.0      0.000      0.000
REMARK  3 active torsions:
REMARK  status: ('A' for Active; 'I' for Inactive)
REMARK    1  A    between atoms: O2_2  and  C6_10 
REMARK    2  A    between atoms: O4_4  and  C9_13 
REMARK    3  A    between atoms: C3_7  and  C5_9 
ROOT
ATOM      1  O1  UNK     1      43.913  -0.031   9.046  1.00  0.00    -0.309 OA
ATOM      2  O3  UNK     1      40.924   2.167   7.360  1.00  0.00    -0.287 OA
ATOM      3  C1  UNK     1      41.535   0.303   8.678  1.00  0.00     0.081 A 
ATOM      4  C2  UNK     1      42.604  -0.403   9.227  1.00  0.00     0.095 A 
ATOM      5  C3  UNK     1      44.180   1.091   8.277  1.00  0.00     0.090 A 
ATOM      6  C4  UNK     1      41.814   1.499   7.870  1.00  0.00     0.190 A 
ATOM      7  C6  UNK     1      40.222  -0.122   8.896  1.00  0.00     0.085 A 
ATOM      8  C7  UNK     1      43.237   1.856   7.702  1.00  0.00     0.094 A 
ATOM      9  C8  UNK     1      42.367  -1.540  10.000  1.00  0.00     0.075 A 
ATOM     10  C9  UNK     1      41.057  -1.968  10.219  1.00  0.00     0.071 A 
ATOM     11  C10 UNK     1      39.988  -1.260   9.669  1.00  0.00     0.074 A 
ENDROOT
BRANCH   5  12
ATOM     12  C5  UNK     1      45.617   1.406   8.152  1.00  0.00    -0.002 A 
ATOM     13  C12 UNK     1      46.077   2.166   7.074  1.00  0.00     0.014 A 
ATOM     14  C14 UNK     1      47.436   2.463   6.954  1.00  0.00     0.001 A 
ATOM     15  C15 UNK     1      48.337   2.001   7.913  1.00  0.00     0.000 A 
ATOM     16  C13 UNK     1      47.881   1.241   8.991  1.00  0.00     0.001 A 
ATOM     17  C11 UNK     1      46.524   0.945   9.110  1.00  0.00     0.014 A 
ENDBRANCH   5  12
BRANCH  10  18
ATOM     18  O4  UNK     1      40.822  -3.077  10.974  1.00  0.00    -0.361 OA
ATOM     19  H10 UNK     1      40.149  -3.621  10.533  1.00  0.00     0.217 HD
ENDBRANCH  10  18
BRANCH   7  20
ATOM     20  O2  UNK     1      39.144   0.533   8.382  1.00  0.00    -0.360 OA
ATOM     21  H9  UNK     1      38.932   0.197   7.498  1.00  0.00     0.217 HD
ENDBRANCH   7  20
TORSDOF 3
ENDMDL
MODEL 2
REMARK VINA RESULT:      -6.0      1.424      3.170
REMARK  3 active torsions:
REMARK  status: ('A' for Active; 'I' for Inactive)
REMARK    1  A    between atoms: O2_2  and  C6_10 
REMARK    2  A    between atoms: O4_4  and  C9_13 
REMARK    3  A    between atoms: C3_7  and  C5_9 
ROOT
ATOM      1  O1  UNK     1      42.717   1.238   7.905  1.00  0.00    -0.309 OA
ATOM      2  O3  UNK     1      41.451  -1.557  10.585  1.00  0.00    -0.287 OA
ATOM      3  C1  UNK     1      40.883  -0.016   8.886  1.00  0.00     0.081 A 
ATOM      4  C2  UNK     1      41.383   0.929   7.992  1.00  0.00     0.095 A 
ATOM      5  C3  UNK     1      43.603   0.588   8.750  1.00  0.00     0.090 A 
ATOM      6  C4  UNK     1      41.820  -0.715   9.778  1.00  0.00     0.190 A 
ATOM      7  C6  UNK     1      39.515  -0.292   8.931  1.00  0.00     0.085 A 
ATOM      8  C7  UNK     1      43.244  -0.344   9.648  1.00  0.00     0.094 A 
ATOM      9  C8  UNK     1      40.516   1.604   7.133  1.00  0.00     0.075 A 
ATOM     10  C9  UNK     1      39.148   1.332   7.175  1.00  0.00     0.071 A 
ATOM     11  C10 UNK     1      38.649   0.386   8.071  1.00  0.00     0.074 A 
ENDROOT
BRANCH   5  12
ATOM     12  C5  UNK     1      45.011   0.991   8.570  1.00  0.00    -0.002 A 
ATOM     13  C12 UNK     1      45.976   0.607   9.505  1.00  0.00     0.014 A 
ATOM     14  C14 UNK     1      47.308   0.988   9.336  1.00  0.00     0.001 A 
ATOM     15  C15 UNK     1      47.679   1.753   8.230  1.00  0.00     0.000 A 
ATOM     16  C13 UNK     1      46.718   2.137   7.294  1.00  0.00     0.001 A 
ATOM     17  C11 UNK     1      45.388   1.757   7.464  1.00  0.00     0.014 A 
ENDBRANCH   5  12
BRANCH  10  18
ATOM     18  O4  UNK     1      38.299   1.990   6.337  1.00  0.00    -0.361 OA
ATOM     19  H10 UNK     1      38.503   1.738   5.421  1.00  0.00     0.217 HD
ENDBRANCH  10  18
BRANCH   7  20
ATOM     20  O2  UNK     1      38.977  -1.206   9.786  1.00  0.00    -0.360 OA
ATOM     21  H9  UNK     1      39.591  -1.943   9.924  1.00  0.00     0.217 HD
ENDBRANCH   7  20
TORSDOF 3
ENDMDL
MODEL 3
REMARK VINA RESULT:      -6.0      2.255      3.028
REMARK  3 active torsions:
REMARK  status: ('A' for Active; 'I' for Inactive)
REMARK    1  A    between atoms: O2_2  and  C6_10 
REMARK    2  A    between atoms: O4_4  and  C9_13 
REMARK    3  A    between atoms: C3_7  and  C5_9 
ROOT
ATOM      1  O1  UNK     1      43.572   1.315   8.501  1.00  0.00    -0.309 OA
ATOM      2  O3  UNK     1      42.712   4.756  10.505  1.00  0.00    -0.287 OA
ATOM      3  C1  UNK     1      41.916   2.939   9.221  1.00  0.00     0.081 A 
ATOM      4  C2  UNK     1      42.279   1.770   8.554  1.00  0.00     0.095 A 
ATOM      5  C3  UNK     1      44.560   2.055   9.132  1.00  0.00     0.090 A 
ATOM      6  C4  UNK     1      42.959   3.722   9.899  1.00  0.00     0.190 A 
ATOM      7  C6  UNK     1      40.583   3.355   9.243  1.00  0.00     0.085 A 
ATOM      8  C7  UNK     1      44.335   3.192   9.810  1.00  0.00     0.094 A 
ATOM      9  C8  UNK     1      41.308   1.007   7.905  1.00  0.00     0.075 A 
ATOM     10  C9  UNK     1      39.975   1.419   7.924  1.00  0.00     0.071 A 
ATOM     11  C10 UNK     1      39.614   2.590   8.592  1.00  0.00     0.074 A 
ENDROOT
BRANCH   5  12
ATOM     12  C5  UNK     1      45.912   1.473   9.018  1.00  0.00    -0.002 A 
ATOM     13  C12 UNK     1      46.793   1.932   8.035  1.00  0.00     0.014 A 
ATOM     14  C14 UNK     1      48.071   1.382   7.926  1.00  0.00     0.001 A 
ATOM     15  C15 UNK     1      48.472   0.373   8.801  1.00  0.00     0.000 A 
ATOM     16  C13 UNK     1      47.595  -0.088   9.783  1.00  0.00     0.001 A 
ATOM     17  C11 UNK     1      46.318   0.462   9.892  1.00  0.00     0.014 A 
ENDBRANCH   5  12
BRANCH  10  18
ATOM     18  O4  UNK     1      39.025   0.676   7.291  1.00  0.00    -0.361 OA
ATOM     19  H10 UNK     1      38.224   0.655   7.842  1.00  0.00     0.217 HD
ENDBRANCH  10  18
BRANCH   7  20
ATOM     20  O2  UNK     1      40.178   4.488   9.881  1.00  0.00    -0.360 OA
ATOM     21  H9  UNK     1      40.587   4.549  10.757  1.00  0.00     0.217 HD
ENDBRANCH   7  20
TORSDOF 3
ENDMDL
MODEL 4
REMARK VINA RESULT:      -6.0      1.428      2.977
REMARK  3 active torsions:
REMARK  status: ('A' for Active; 'I' for Inactive)
REMARK    1  A    between atoms: O2_2  and  C6_10 
REMARK    2  A    between atoms: O4_4  and  C9_13 
REMARK    3  A    between atoms: C3_7  and  C5_9 
ROOT
ATOM      1  O1  UNK     1      42.719   1.225   7.919  1.00  0.00    -0.309 OA
ATOM      2  O3  UNK     1      41.419  -1.561  10.592  1.00  0.00    -0.287 OA
ATOM      3  C1  UNK     1      40.871  -0.017   8.888  1.00  0.00     0.081 A 
ATOM      4  C2  UNK     1      41.383   0.924   7.997  1.00  0.00     0.095 A 
ATOM      5  C3  UNK     1      43.595   0.570   8.770  1.00  0.00     0.090 A 
ATOM      6  C4  UNK     1      41.798  -0.722   9.786  1.00  0.00     0.190 A 
ATOM      7  C6  UNK     1      39.501  -0.285   8.924  1.00  0.00     0.085 A 
ATOM      8  C7  UNK     1      43.225  -0.360   9.666  1.00  0.00     0.094 A 
ATOM      9  C8  UNK     1      40.525   1.604   7.133  1.00  0.00     0.075 A 
ATOM     10  C9  UNK     1      39.155   1.341   7.165  1.00  0.00     0.071 A 
ATOM     11  C10 UNK     1      38.645   0.398   8.058  1.00  0.00     0.074 A 
ENDROOT
BRANCH   5  12
ATOM     12  C5  UNK     1      45.007   0.964   8.599  1.00  0.00    -0.002 A 
ATOM     13  C12 UNK     1      45.392   1.734   7.498  1.00  0.00     0.014 A 
ATOM     14  C14 UNK     1      46.727   2.107   7.335  1.00  0.00     0.001 A 
ATOM     15  C15 UNK     1      47.681   1.711   8.272  1.00  0.00     0.000 A 
ATOM     16  C13 UNK     1      47.300   0.942   9.373  1.00  0.00     0.001 A 
ATOM     17  C11 UNK     1      45.966   0.570   9.536  1.00  0.00     0.014 A 
ENDBRANCH   5  12
BRANCH  10  18
ATOM     18  O4  UNK     1      38.316   2.003   6.322  1.00  0.00    -0.361 OA
ATOM     19  H10 UNK     1      38.472   2.959   6.408  1.00  0.00     0.217 HD
ENDBRANCH  10  18
BRANCH   7  20
ATOM     20  O2  UNK     1      38.952  -1.195   9.776  1.00  0.00    -0.360 OA
ATOM     21  H9  UNK     1      38.079  -0.897  10.075  1.00  0.00     0.217 HD
ENDBRANCH   7  20
TORSDOF 3
ENDMDL
MODEL 5
REMARK VINA RESULT:      -6.0      2.254      3.210
REMARK  3 active torsions:
REMARK  status: ('A' for Active; 'I' for Inactive)
REMARK    1  A    between atoms: O2_2  and  C6_10 
REMARK    2  A    between atoms: O4_4  and  C9_13 
REMARK    3  A    between atoms: C3_7  and  C5_9 
ROOT
ATOM      1  O1  UNK     1      43.571   1.311   8.505  1.00  0.00    -0.309 OA
ATOM      2  O3  UNK     1      42.719   4.753  10.511  1.00  0.00    -0.287 OA
ATOM      3  C1  UNK     1      41.918   2.938   9.227  1.00  0.00     0.081 A 
ATOM      4  C2  UNK     1      42.278   1.769   8.560  1.00  0.00     0.095 A 
ATOM      5  C3  UNK     1      44.560   2.050   9.135  1.00  0.00     0.090 A 
ATOM      6  C4  UNK     1      42.963   3.719   9.905  1.00  0.00     0.190 A 
ATOM      7  C6  UNK     1      40.585   3.357   9.251  1.00  0.00     0.085 A 
ATOM      8  C7  UNK     1      44.338   3.187   9.814  1.00  0.00     0.094 A 
ATOM      9  C8  UNK     1      41.305   1.008   7.911  1.00  0.00     0.075 A 
ATOM     10  C9  UNK     1      39.973   1.422   7.932  1.00  0.00     0.071 A 
ATOM     11  C10 UNK     1      39.614   2.594   8.601  1.00  0.00     0.074 A 
ENDROOT
BRANCH   5  12
ATOM     12  C5  UNK     1      45.911   1.465   9.019  1.00  0.00    -0.002 A 
ATOM     13  C12 UNK     1      46.311   0.447   9.888  1.00  0.00     0.014 A 
ATOM     14  C14 UNK     1      47.588  -0.106   9.780  1.00  0.00     0.001 A 
ATOM     15  C15 UNK     1      48.468   0.358   8.803  1.00  0.00     0.000 A 
ATOM     16  C13 UNK     1      48.072   1.375   7.933  1.00  0.00     0.001 A 
ATOM     17  C11 UNK     1      46.795   1.927   8.041  1.00  0.00     0.014 A 
ENDBRANCH   5  12
BRANCH  10  18
ATOM     18  O4  UNK     1      39.021   0.681   7.300  1.00  0.00    -0.361 OA
ATOM     19  H10 UNK     1      39.249   0.612   6.358  1.00  0.00     0.217 HD
ENDBRANCH  10  18
BRANCH   7  20
ATOM     20  O2  UNK     1      40.183   4.490   9.889  1.00  0.00    -0.360 OA
ATOM     21  H9  UNK     1      40.649   4.588  10.733  1.00  0.00     0.217 HD
ENDBRANCH   7  20
TORSDOF 3
ENDMDL
MODEL 6
REMARK VINA RESULT:      -6.0      2.475      6.794
REMARK  3 active torsions:
REMARK  status: ('A' for Active; 'I' for Inactive)
REMARK    1  A    between atoms: O2_2  and  C6_10 
REMARK    2  A    between atoms: O4_4  and  C9_13 
REMARK    3  A    between atoms: C3_7  and  C5_9 
ROOT
ATOM      1  O1  UNK     1      44.631   1.767   7.496  1.00  0.00    -0.309 OA
ATOM      2  O3  UNK     1      46.448   0.378  10.868  1.00  0.00    -0.287 OA
ATOM      3  C1  UNK     1      46.673   1.445   8.771  1.00  0.00     0.081 A 
ATOM      4  C2  UNK     1      45.989   1.898   7.644  1.00  0.00     0.095 A 
ATOM      5  C3  UNK     1      43.912   1.149   8.507  1.00  0.00     0.090 A 
ATOM      6  C4  UNK     1      45.913   0.797   9.850  1.00  0.00     0.190 A 
ATOM      7  C6  UNK     1      48.057   1.605   8.869  1.00  0.00     0.085 A 
ATOM      8  C7  UNK     1      44.455   0.678   9.641  1.00  0.00     0.094 A 
ATOM      9  C8  UNK     1      46.686   2.517   6.607  1.00  0.00     0.075 A 
ATOM     10  C9  UNK     1      48.069   2.679   6.701  1.00  0.00     0.071 A 
ATOM     11  C10 UNK     1      48.752   2.225   7.830  1.00  0.00     0.074 A 
ENDROOT
BRANCH   5  12
ATOM     12  C5  UNK     1      42.461   1.066   8.249  1.00  0.00    -0.002 A 
ATOM     13  C12 UNK     1      41.794   2.135   7.644  1.00  0.00     0.014 A 
ATOM     14  C14 UNK     1      40.422   2.057   7.399  1.00  0.00     0.001 A 
ATOM     15  C15 UNK     1      39.714   0.911   7.758  1.00  0.00     0.000 A 
ATOM     16  C13 UNK     1      40.377  -0.158   8.362  1.00  0.00     0.001 A 
ATOM     17  C11 UNK     1      41.747  -0.080   8.606  1.00  0.00     0.014 A 
ENDBRANCH   5  12
BRANCH  10  18
ATOM     18  O4  UNK     1      48.752   3.285   5.690  1.00  0.00    -0.361 OA
ATOM     19  H10 UNK     1      49.701   3.268   5.898  1.00  0.00     0.217 HD
ENDBRANCH  10  18
BRANCH   7  20
ATOM     20  O2  UNK     1      48.771   1.180   9.948  1.00  0.00    -0.360 OA
ATOM     21  H9  UNK     1      49.269   0.378   9.731  1.00  0.00     0.217 HD
ENDBRANCH   7  20
TORSDOF 3
ENDMDL
MODEL 7
REMARK VINA RESULT:      -5.9      1.652      2.222
REMARK  3 active torsions:
REMARK  status: ('A' for Active; 'I' for Inactive)
REMARK    1  A    between atoms: O2_2  and  C6_10 
REMARK    2  A    between atoms: O4_4  and  C9_13 
REMARK    3  A    between atoms: C3_7  and  C5_9 
ROOT
ATOM      1  O1  UNK     1      41.840  -0.445   8.436  1.00  0.00    -0.309 OA
ATOM      2  O3  UNK     1      39.113   2.273   7.105  1.00  0.00    -0.287 OA
ATOM      3  C1  UNK     1      39.530   0.092   7.914  1.00  0.00     0.081 A 
ATOM      4  C2  UNK     1      40.514  -0.788   8.360  1.00  0.00     0.095 A 
ATOM      5  C3  UNK     1      42.217   0.830   8.043  1.00  0.00     0.090 A 
ATOM      6  C4  UNK     1      39.923   1.449   7.505  1.00  0.00     0.190 A 
ATOM      7  C6  UNK     1      38.194  -0.311   7.858  1.00  0.00     0.085 A 
ATOM      8  C7  UNK     1      41.363   1.768   7.602  1.00  0.00     0.094 A 
ATOM      9  C8  UNK     1      40.166  -2.080   8.756  1.00  0.00     0.075 A 
ATOM     10  C9  UNK     1      38.833  -2.487   8.702  1.00  0.00     0.071 A 
ATOM     11  C10 UNK     1      37.849  -1.603   8.254  1.00  0.00     0.074 A 
ENDROOT
BRANCH   5  12
ATOM     12  C5  UNK     1      43.663   1.095   8.170  1.00  0.00    -0.002 A 
ATOM     13  C12 UNK     1      44.319   1.879   7.217  1.00  0.00     0.014 A 
ATOM     14  C14 UNK     1      45.687   2.130   7.337  1.00  0.00     0.001 A 
ATOM     15  C15 UNK     1      46.402   1.598   8.410  1.00  0.00     0.000 A 
ATOM     16  C13 UNK     1      45.750   0.815   9.363  1.00  0.00     0.001 A 
ATOM     17  C11 UNK     1      44.384   0.565   9.244  1.00  0.00     0.014 A 
ENDBRANCH   5  12
BRANCH  10  18
ATOM     18  O4  UNK     1      38.491  -3.747   9.088  1.00  0.00    -0.361 OA
ATOM     19  H10 UNK     1      37.819  -3.690   9.788  1.00  0.00     0.217 HD
ENDBRANCH  10  18
BRANCH   7  20
ATOM     20  O2  UNK     1      37.196   0.512   7.429  1.00  0.00    -0.360 OA
ATOM     21  H9  UNK     1      37.141   1.299   7.991  1.00  0.00     0.217 HD
ENDBRANCH   7  20
TORSDOF 3
ENDMDL
MODEL 8
REMARK VINA RESULT:      -5.8      2.357      3.228
REMARK  3 active torsions:
REMARK  status: ('A' for Active; 'I' for Inactive)
REMARK    1  A    between atoms: O2_2  and  C6_10 
REMARK    2  A    between atoms: O4_4  and  C9_13 
REMARK    3  A    between atoms: C3_7  and  C5_9 
ROOT
ATOM      1  O1  UNK     1      43.943   2.267   7.972  1.00  0.00    -0.309 OA
ATOM      2  O3  UNK     1      42.550   5.383  10.196  1.00  0.00    -0.287 OA
ATOM      3  C1  UNK     1      42.068   3.375   9.046  1.00  0.00     0.081 A 
ATOM      4  C2  UNK     1      42.610   2.338   8.291  1.00  0.00     0.095 A 
ATOM      5  C3  UNK     1      44.783   3.276   8.416  1.00  0.00     0.090 A 
ATOM      6  C4  UNK     1      42.957   4.444   9.526  1.00  0.00     0.190 A 
ATOM      7  C6  UNK     1      40.703   3.396   9.341  1.00  0.00     0.085 A 
ATOM      8  C7  UNK     1      44.382   4.323   9.154  1.00  0.00     0.094 A 
ATOM      9  C8  UNK     1      41.789   1.311   7.825  1.00  0.00     0.075 A 
ATOM     10  C9  UNK     1      40.425   1.328   8.117  1.00  0.00     0.071 A 
ATOM     11  C10 UNK     1      39.883   2.368   8.874  1.00  0.00     0.074 A 
ENDROOT
BRANCH   5  12
ATOM     12  C5  UNK     1      46.195   3.099   8.023  1.00  0.00    -0.002 A 
ATOM     13  C12 UNK     1      47.188   3.895   8.599  1.00  0.00     0.014 A 
ATOM     14  C14 UNK     1      48.523   3.729   8.228  1.00  0.00     0.001 A 
ATOM     15  C15 UNK     1      48.869   2.765   7.281  1.00  0.00     0.000 A 
ATOM     16  C13 UNK     1      47.879   1.968   6.704  1.00  0.00     0.001 A 
ATOM     17  C11 UNK     1      46.545   2.134   7.075  1.00  0.00     0.014 A 
ENDBRANCH   5  12
BRANCH  10  18
ATOM     18  O4  UNK     1      39.620   0.326   7.664  1.00  0.00    -0.361 OA
ATOM     19  H10 UNK     1      38.887   0.715   7.158  1.00  0.00     0.217 HD
ENDBRANCH  10  18
BRANCH   7  20
ATOM     20  O2  UNK     1      40.125   4.387  10.075  1.00  0.00    -0.360 OA
ATOM     21  H9  UNK     1      39.211   4.533   9.789  1.00  0.00     0.217 HD
ENDBRANCH   7  20
TORSDOF 3
ENDMDL
MODEL 9
REMARK VINA RESULT:      -5.8      2.580      3.304
REMARK  3 active torsions:
REMARK  status: ('A' for Active; 'I' for Inactive)
REMARK    1  A    between atoms: O2_2  and  C6_10 
REMARK    2  A    between atoms: O4_4  and  C9_13 
REMARK    3  A    between atoms: C3_7  and  C5_9 
ROOT
ATOM      1  O1  UNK     1      42.116   1.083   9.314  1.00  0.00    -0.309 OA
ATOM      2  O3  UNK     1      38.959   1.238   6.743  1.00  0.00    -0.287 OA
ATOM      3  C1  UNK     1      40.341  -0.082   8.133  1.00  0.00     0.081 A 
ATOM      4  C2  UNK     1      41.428  -0.064   9.004  1.00  0.00     0.095 A 
ATOM      5  C3  UNK     1      41.714   2.273   8.727  1.00  0.00     0.090 A 
ATOM      6  C4  UNK     1      39.906   1.179   7.515  1.00  0.00     0.190 A 
ATOM      7  C6  UNK     1      39.679  -1.279   7.854  1.00  0.00     0.085 A 
ATOM      8  C7  UNK     1      40.679   2.385   7.877  1.00  0.00     0.094 A 
ATOM      9  C8  UNK     1      41.860  -1.246   9.605  1.00  0.00     0.075 A 
ATOM     10  C9  UNK     1      41.201  -2.445   9.330  1.00  0.00     0.071 A 
ATOM     11  C10 UNK     1      40.113  -2.461   8.456  1.00  0.00     0.074 A 
ENDROOT
BRANCH   5  12
ATOM     12  C5  UNK     1      42.515   3.444   9.133  1.00  0.00    -0.002 A 
ATOM     13  C12 UNK     1      41.950   4.436   9.938  1.00  0.00     0.014 A 
ATOM     14  C14 UNK     1      42.707   5.544  10.321  1.00  0.00     0.001 A 
ATOM     15  C15 UNK     1      44.032   5.662   9.902  1.00  0.00     0.000 A 
ATOM     16  C13 UNK     1      44.600   4.673   9.098  1.00  0.00     0.001 A 
ATOM     17  C11 UNK     1      43.843   3.566   8.714  1.00  0.00     0.014 A 
ENDBRANCH   5  12
BRANCH  10  18
ATOM     18  O4  UNK     1      41.620  -3.601   9.916  1.00  0.00    -0.361 OA
ATOM     19  H10 UNK     1      40.992  -4.310   9.698  1.00  0.00     0.217 HD
ENDBRANCH  10  18
BRANCH   7  20
ATOM     20  O2  UNK     1      38.612  -1.349   7.010  1.00  0.00    -0.360 OA
ATOM     21  H9  UNK     1      38.308  -0.460   6.772  1.00  0.00     0.217 HD
ENDBRANCH   7  20
TORSDOF 3
ENDMDL
MODEL 10
REMARK VINA RESULT:      -5.7      1.720      3.207
REMARK  3 active torsions:
REMARK  status: ('A' for Active; 'I' for Inactive)
REMARK    1  A    between atoms: O2_2  and  C6_10 
REMARK    2  A    between atoms: O4_4  and  C9_13 
REMARK    3  A    between atoms: C3_7  and  C5_9 
ROOT
ATOM      1  O1  UNK     1      43.351   1.659   7.926  1.00  0.00    -0.309 OA
ATOM      2  O3  UNK     1      41.942   0.238  11.475  1.00  0.00    -0.287 OA
ATOM      3  C1  UNK     1      41.450   1.148   9.350  1.00  0.00     0.081 A 
ATOM      4  C2  UNK     1      41.999   1.620   8.159  1.00  0.00     0.095 A 
ATOM      5  C3  UNK     1      44.206   1.215   8.922  1.00  0.00     0.090 A 
ATOM      6  C4  UNK     1      42.354   0.668  10.406  1.00  0.00     0.190 A 
ATOM      7  C6  UNK     1      40.066   1.131   9.533  1.00  0.00     0.085 A 
ATOM      8  C7  UNK     1      43.799   0.733  10.108  1.00  0.00     0.094 A 
ATOM      9  C8  UNK     1      41.164   2.079   7.140  1.00  0.00     0.075 A 
ATOM     10  C9  UNK     1      39.780   2.065   7.318  1.00  0.00     0.071 A 
ATOM     11  C10 UNK     1      39.233   1.591   8.512  1.00  0.00     0.074 A 
ENDROOT
BRANCH   5  12
ATOM     12  C5  UNK     1      45.636   1.294   8.566  1.00  0.00    -0.002 A 
ATOM     13  C12 UNK     1      46.591   0.637   9.346  1.00  0.00     0.014 A 
ATOM     14  C14 UNK     1      47.943   0.712   9.010  1.00  0.00     0.001 A 
ATOM     15  C15 UNK     1      48.345   1.443   7.892  1.00  0.00     0.000 A 
ATOM     16  C13 UNK     1      47.394   2.100   7.110  1.00  0.00     0.001 A 
ATOM     17  C11 UNK     1      46.042   2.025   7.446  1.00  0.00     0.014 A 
ENDBRANCH   5  12
BRANCH  10  18
ATOM     18  O4  UNK     1      38.962   2.512   6.325  1.00  0.00    -0.361 OA
ATOM     19  H10 UNK     1      39.270   2.150   5.477  1.00  0.00     0.217 HD
ENDBRANCH  10  18
BRANCH   7  20
ATOM     20  O2  UNK     1      39.481   0.680  10.677  1.00  0.00    -0.360 OA
ATOM     21  H9  UNK     1      38.516   0.686  10.591  1.00  0.00     0.217 HD
ENDBRANCH   7  20
TORSDOF 3
ENDMDL
MODEL 11
REMARK VINA RESULT:      -5.7      5.626      9.198
REMARK  3 active torsions:
REMARK  status: ('A' for Active; 'I' for Inactive)
REMARK    1  A    between atoms: O2_2  and  C6_10 
REMARK    2  A    between atoms: O4_4  and  C9_13 
REMARK    3  A    between atoms: C3_7  and  C5_9 
ROOT
ATOM      1  O1  UNK     1      38.107  -3.851   6.302  1.00  0.00    -0.309 OA
ATOM      2  O3  UNK     1      35.155  -1.381   7.636  1.00  0.00    -0.287 OA
ATOM      3  C1  UNK     1      37.468  -1.848   7.519  1.00  0.00     0.081 A 
ATOM      4  C2  UNK     1      38.428  -2.734   7.032  1.00  0.00     0.095 A 
ATOM      5  C3  UNK     1      36.770  -4.112   6.047  1.00  0.00     0.090 A 
ATOM      6  C4  UNK     1      36.049  -2.116   7.242  1.00  0.00     0.190 A 
ATOM      7  C6  UNK     1      37.852  -0.726   8.256  1.00  0.00     0.085 A 
ATOM      8  C7  UNK     1      35.756  -3.333   6.456  1.00  0.00     0.094 A 
ATOM      9  C8  UNK     1      39.781  -2.501   7.278  1.00  0.00     0.075 A 
ATOM     10  C9  UNK     1      40.169  -1.381   8.015  1.00  0.00     0.071 A 
ATOM     11  C10 UNK     1      39.207  -0.495   8.501  1.00  0.00     0.074 A 
ENDROOT
BRANCH   5  12
ATOM     12  C5  UNK     1      36.538  -5.333   5.250  1.00  0.00    -0.002 A 
ATOM     13  C12 UNK     1      35.407  -6.120   5.485  1.00  0.00     0.014 A 
ATOM     14  C14 UNK     1      35.187  -7.274   4.733  1.00  0.00     0.001 A 
ATOM     15  C15 UNK     1      36.097  -7.646   3.743  1.00  0.00     0.000 A 
ATOM     16  C13 UNK     1      37.227  -6.863   3.506  1.00  0.00     0.001 A 
ATOM     17  C11 UNK     1      37.447  -5.709   4.258  1.00  0.00     0.014 A 
ENDBRANCH   5  12
BRANCH  10  18
ATOM     18  O4  UNK     1      41.489  -1.151   8.256  1.00  0.00    -0.361 OA
ATOM     19  H10 UNK     1      41.898  -1.971   8.580  1.00  0.00     0.217 HD
ENDBRANCH  10  18
BRANCH   7  20
ATOM     20  O2  UNK     1      36.954   0.169   8.753  1.00  0.00    -0.360 OA
ATOM     21  H9  UNK     1      36.774   0.866   8.104  1.00  0.00     0.217 HD
ENDBRANCH   7  20
TORSDOF 3
ENDMDL
MODEL 12
REMARK VINA RESULT:      -5.7      2.702      6.650
REMARK  3 active torsions:
REMARK  status: ('A' for Active; 'I' for Inactive)
REMARK    1  A    between atoms: O2_2  and  C6_10 
REMARK    2  A    between atoms: O4_4  and  C9_13 
REMARK    3  A    between atoms: C3_7  and  C5_9 
ROOT
ATOM      1  O1  UNK     1      43.534   1.827   7.439  1.00  0.00    -0.309 OA
ATOM      2  O3  UNK     1      43.953   4.790  10.204  1.00  0.00    -0.287 OA
ATOM      3  C1  UNK     1      44.972   3.430   8.561  1.00  0.00     0.081 A 
ATOM      4  C2  UNK     1      44.759   2.413   7.633  1.00  0.00     0.095 A 
ATOM      5  C3  UNK     1      42.465   2.261   8.208  1.00  0.00     0.090 A 
ATOM      6  C4  UNK     1      43.839   3.900   9.372  1.00  0.00     0.190 A 
ATOM      7  C6  UNK     1      46.242   3.992   8.716  1.00  0.00     0.085 A 
ATOM      8  C7  UNK     1      42.542   3.235   9.128  1.00  0.00     0.094 A 
ATOM      9  C8  UNK     1      45.817   1.951   6.850  1.00  0.00     0.075 A 
ATOM     10  C9  UNK     1      47.087   2.509   7.001  1.00  0.00     0.071 A 
ATOM     11  C10 UNK     1      47.298   3.527   7.932  1.00  0.00     0.074 A 
ENDROOT
BRANCH   5  12
ATOM     12  C5  UNK     1      41.195   1.569   7.915  1.00  0.00    -0.002 A 
ATOM     13  C12 UNK     1      41.036   0.222   8.252  1.00  0.00     0.014 A 
ATOM     14  C14 UNK     1      39.835  -0.433   7.975  1.00  0.00     0.001 A 
ATOM     15  C15 UNK     1      38.790   0.256   7.361  1.00  0.00     0.000 A 
ATOM     16  C13 UNK     1      38.945   1.601   7.023  1.00  0.00     0.001 A 
ATOM     17  C11 UNK     1      40.145   2.255   7.299  1.00  0.00     0.014 A 
ENDBRANCH   5  12
BRANCH  10  18
ATOM     18  O4  UNK     1      48.122   2.060   6.237  1.00  0.00    -0.361 OA
ATOM     19  H10 UNK     1      48.620   1.394   6.741  1.00  0.00     0.217 HD
ENDBRANCH  10  18
BRANCH   7  20
ATOM     20  O2  UNK     1      46.501   4.987   9.609  1.00  0.00    -0.360 OA
ATOM     21  H9  UNK     1      46.740   5.805   9.146  1.00  0.00     0.217 HD
ENDBRANCH   7  20
TORSDOF 3
ENDMDL
MODEL 13
REMARK VINA RESULT:      -5.7      6.076      9.311
REMARK  3 active torsions:
REMARK  status: ('A' for Active; 'I' for Inactive)
REMARK    1  A    between atoms: O2_2  and  C6_10 
REMARK    2  A    between atoms: O4_4  and  C9_13 
REMARK    3  A    between atoms: C3_7  and  C5_9 
ROOT
ATOM      1  O1  UNK     1      38.521  -4.461   6.002  1.00  0.00    -0.309 OA
ATOM      2  O3  UNK     1      35.001  -2.492   6.576  1.00  0.00    -0.287 OA
ATOM      3  C1  UNK     1      37.347  -2.514   6.856  1.00  0.00     0.081 A 
ATOM      4  C2  UNK     1      38.514  -3.240   6.627  1.00  0.00     0.095 A 
ATOM      5  C3  UNK     1      37.311  -4.998   5.588  1.00  0.00     0.090 A 
ATOM      6  C4  UNK     1      36.063  -3.075   6.410  1.00  0.00     0.190 A 
ATOM      7  C6  UNK     1      37.400  -1.274   7.498  1.00  0.00     0.085 A 
ATOM      8  C7  UNK     1      36.123  -4.393   5.745  1.00  0.00     0.094 A 
ATOM      9  C8  UNK     1      39.745  -2.729   7.039  1.00  0.00     0.075 A 
ATOM     10  C9  UNK     1      39.803  -1.492   7.680  1.00  0.00     0.071 A 
ATOM     11  C10 UNK     1      38.633  -0.766   7.909  1.00  0.00     0.074 A 
ENDROOT
BRANCH   5  12
ATOM     12  C5  UNK     1      37.433  -6.310   4.922  1.00  0.00    -0.002 A 
ATOM     13  C12 UNK     1      38.198  -7.324   5.504  1.00  0.00     0.014 A 
ATOM     14  C14 UNK     1      38.313  -8.564   4.875  1.00  0.00     0.001 A 
ATOM     15  C15 UNK     1      37.664  -8.794   3.663  1.00  0.00     0.000 A 
ATOM     16  C13 UNK     1      36.899  -7.784   3.079  1.00  0.00     0.001 A 
ATOM     17  C11 UNK     1      36.783  -6.544   3.707  1.00  0.00     0.014 A 
ENDBRANCH   5  12
BRANCH  10  18
ATOM     18  O4  UNK     1      41.004  -0.990   8.082  1.00  0.00    -0.361 OA
ATOM     19  H10 UNK     1      41.090  -0.079   7.754  1.00  0.00     0.217 HD
ENDBRANCH  10  18
BRANCH   7  20
ATOM     20  O2  UNK     1      36.289  -0.527   7.744  1.00  0.00    -0.360 OA
ATOM     21  H9  UNK     1      36.491   0.188   8.367  1.00  0.00     0.217 HD
ENDBRANCH   7  20
TORSDOF 3
ENDMDL
MODEL 14
REMARK VINA RESULT:      -5.6      1.382      3.456
REMARK  3 active torsions:
REMARK  status: ('A' for Active; 'I' for Inactive)
REMARK    1  A    between atoms: O2_2  and  C6_10 
REMARK    2  A    between atoms: O4_4  and  C9_13 
REMARK    3  A    between atoms: C3_7  and  C5_9 
ROOT
ATOM      1  O1  UNK     1      41.629   0.395   8.237  1.00  0.00    -0.309 OA
ATOM      2  O3  UNK     1      41.490  -2.744  10.830  1.00  0.00    -0.287 OA
ATOM      3  C1  UNK     1      40.316  -1.307   9.367  1.00  0.00     0.081 A 
ATOM      4  C2  UNK     1      40.434  -0.229   8.491  1.00  0.00     0.095 A 
ATOM      5  C3  UNK     1      42.765  -0.062   8.886  1.00  0.00     0.090 A 
ATOM      6  C4  UNK     1      41.520  -1.802  10.051  1.00  0.00     0.190 A 
ATOM      7  C6  UNK     1      39.073  -1.905   9.587  1.00  0.00     0.085 A 
ATOM      8  C7  UNK     1      42.780  -1.094   9.746  1.00  0.00     0.094 A 
ATOM      9  C8  UNK     1      39.308   0.258   7.828  1.00  0.00     0.075 A 
ATOM     10  C9  UNK     1      38.064  -0.336   8.046  1.00  0.00     0.071 A 
ATOM     11  C10 UNK     1      37.948  -1.416   8.923  1.00  0.00     0.074 A 
ENDROOT
BRANCH   5  12
ATOM     12  C5  UNK     1      43.995   0.675   8.537  1.00  0.00    -0.002 A 
ATOM     13  C12 UNK     1      45.109   0.621   9.379  1.00  0.00     0.014 A 
ATOM     14  C14 UNK     1      46.272   1.319   9.050  1.00  0.00     0.001 A 
ATOM     15  C15 UNK     1      46.325   2.071   7.876  1.00  0.00     0.000 A 
ATOM     16  C13 UNK     1      45.215   2.126   7.033  1.00  0.00     0.001 A 
ATOM     17  C11 UNK     1      44.053   1.429   7.362  1.00  0.00     0.014 A 
ENDBRANCH   5  12
BRANCH  10  18
ATOM     18  O4  UNK     1      36.963   0.136   7.399  1.00  0.00    -0.361 OA
ATOM     19  H10 UNK     1      36.515  -0.605   6.956  1.00  0.00     0.217 HD
ENDBRANCH  10  18
BRANCH   7  20
ATOM     20  O2  UNK     1      38.905  -2.960  10.432  1.00  0.00    -0.360 OA
ATOM     21  H9  UNK     1      39.516  -3.678  10.204  1.00  0.00     0.217 HD
ENDBRANCH   7  20
TORSDOF 3
ENDMDL
MODEL 15
REMARK VINA RESULT:      -5.5      2.885      4.288
REMARK  3 active torsions:
REMARK  status: ('A' for Active; 'I' for Inactive)
REMARK    1  A    between atoms: O2_2  and  C6_10 
REMARK    2  A    between atoms: O4_4  and  C9_13 
REMARK    3  A    between atoms: C3_7  and  C5_9 
ROOT
ATOM      1  O1  UNK     1      41.255   3.006   8.657  1.00  0.00    -0.309 OA
ATOM      2  O3  UNK     1      43.265  -0.484   9.272  1.00  0.00    -0.287 OA
ATOM      3  C1  UNK     1      41.280   0.579   8.556  1.00  0.00     0.081 A 
ATOM      4  C2  UNK     1      40.650   1.808   8.368  1.00  0.00     0.095 A 
ATOM      5  C3  UNK     1      42.545   2.990   9.164  1.00  0.00     0.090 A 
ATOM      6  C4  UNK     1      42.652   0.558   9.085  1.00  0.00     0.190 A 
ATOM      7  C6  UNK     1      40.616  -0.610   8.244  1.00  0.00     0.085 A 
ATOM      8  C7  UNK     1      43.257   1.873   9.383  1.00  0.00     0.094 A 
ATOM      9  C8  UNK     1      39.350   1.857   7.866  1.00  0.00     0.075 A 
ATOM     10  C9  UNK     1      38.683   0.671   7.553  1.00  0.00     0.071 A 
ATOM     11  C10 UNK     1      39.316  -0.558   7.742  1.00  0.00     0.074 A 
ENDROOT
BRANCH   5  12
ATOM     12  C5  UNK     1      43.101   4.330   9.433  1.00  0.00    -0.002 A 
ATOM     13  C12 UNK     1      42.326   5.294  10.083  1.00  0.00     0.014 A 
ATOM     14  C14 UNK     1      42.851   6.562  10.337  1.00  0.00     0.001 A 
ATOM     15  C15 UNK     1      44.153   6.869   9.944  1.00  0.00     0.000 A 
ATOM     16  C13 UNK     1      44.930   5.909   9.295  1.00  0.00     0.001 A 
ATOM     17  C11 UNK     1      44.406   4.642   9.041  1.00  0.00     0.014 A 
ENDBRANCH   5  12
BRANCH  10  18
ATOM     18  O4  UNK     1      37.414   0.715   7.061  1.00  0.00    -0.361 OA
ATOM     19  H10 UNK     1      37.306   0.006   6.405  1.00  0.00     0.217 HD
ENDBRANCH  10  18
BRANCH   7  20
ATOM     20  O2  UNK     1      41.188  -1.834   8.409  1.00  0.00    -0.360 OA
ATOM     21  H9  UNK     1      40.672  -2.370   9.030  1.00  0.00     0.217 HD
ENDBRANCH   7  20
TORSDOF 3
ENDMDL
MODEL 16
REMARK VINA RESULT:      -5.5      2.421      6.359
REMARK  3 active torsions:
REMARK  status: ('A' for Active; 'I' for Inactive)
REMARK    1  A    between atoms: O2_2  and  C6_10 
REMARK    2  A    between atoms: O4_4  and  C9_13 
REMARK    3  A    between atoms: C3_7  and  C5_9 
ROOT
ATOM      1  O1  UNK     1      45.279   0.237   9.950  1.00  0.00    -0.309 OA
ATOM      2  O3  UNK     1      44.527   2.201   6.461  1.00  0.00    -0.287 OA
ATOM      3  C1  UNK     1      46.113   1.558   8.090  1.00  0.00     0.081 A 
ATOM      4  C2  UNK     1      46.301   0.868   9.286  1.00  0.00     0.095 A 
ATOM      5  C3  UNK     1      44.004   0.297   9.410  1.00  0.00     0.090 A 
ATOM      6  C4  UNK     1      44.764   1.616   7.509  1.00  0.00     0.190 A 
ATOM      7  C6  UNK     1      47.191   2.181   7.457  1.00  0.00     0.085 A 
ATOM      8  C7  UNK     1      43.698   0.924   8.263  1.00  0.00     0.094 A 
ATOM      9  C8  UNK     1      47.572   0.796   9.858  1.00  0.00     0.075 A 
ATOM     10  C9  UNK     1      48.651   1.417   9.229  1.00  0.00     0.071 A 
ATOM     11  C10 UNK     1      48.461   2.108   8.031  1.00  0.00     0.074 A 
ENDROOT
BRANCH   5  12
ATOM     12  C5  UNK     1      42.983  -0.419  10.200  1.00  0.00    -0.002 A 
ATOM     13  C12 UNK     1      42.506   0.131  11.392  1.00  0.00     0.014 A 
ATOM     14  C14 UNK     1      41.541  -0.546  12.140  1.00  0.00     0.001 A 
ATOM     15  C15 UNK     1      41.050  -1.773  11.697  1.00  0.00     0.000 A 
ATOM     16  C13 UNK     1      41.524  -2.325  10.506  1.00  0.00     0.001 A 
ATOM     17  C11 UNK     1      42.488  -1.650   9.759  1.00  0.00     0.014 A 
ENDBRANCH   5  12
BRANCH  10  18
ATOM     18  O4  UNK     1      49.893   1.348   9.784  1.00  0.00    -0.361 OA
ATOM     19  H10 UNK     1      50.022   2.117  10.364  1.00  0.00     0.217 HD
ENDBRANCH  10  18
BRANCH   7  20
ATOM     20  O2  UNK     1      47.059   2.867   6.288  1.00  0.00    -0.360 OA
ATOM     21  H9  UNK     1      46.294   3.461   6.327  1.00  0.00     0.217 HD
ENDBRANCH   7  20
TORSDOF 3
ENDMDL
MODEL 17
REMARK VINA RESULT:      -5.5      6.874     10.185
REMARK  3 active torsions:
REMARK  status: ('A' for Active; 'I' for Inactive)
REMARK    1  A    between atoms: O2_2  and  C6_10 
REMARK    2  A    between atoms: O4_4  and  C9_13 
REMARK    3  A    between atoms: C3_7  and  C5_9 
ROOT
ATOM      1  O1  UNK     1      38.073  -5.398   5.432  1.00  0.00    -0.309 OA
ATOM      2  O3  UNK     1      37.134  -6.516   9.235  1.00  0.00    -0.287 OA
ATOM      3  C1  UNK     1      37.766  -4.781   7.761  1.00  0.00     0.081 A 
ATOM      4  C2  UNK     1      38.076  -4.466   6.439  1.00  0.00     0.095 A 
ATOM      5  C3  UNK     1      37.754  -6.710   5.746  1.00  0.00     0.090 A 
ATOM      6  C4  UNK     1      37.419  -6.169   8.097  1.00  0.00     0.190 A 
ATOM      7  C6  UNK     1      37.786  -3.791   8.746  1.00  0.00     0.085 A 
ATOM      8  C7  UNK     1      37.432  -7.134   6.979  1.00  0.00     0.094 A 
ATOM      9  C8  UNK     1      38.408  -3.156   6.093  1.00  0.00     0.075 A 
ATOM     10  C9  UNK     1      38.429  -2.164   7.075  1.00  0.00     0.071 A 
ATOM     11  C10 UNK     1      38.118  -2.481   8.398  1.00  0.00     0.074 A 
ENDROOT
BRANCH   5  12
ATOM     12  C5  UNK     1      37.774  -7.626   4.589  1.00  0.00    -0.002 A 
ATOM     13  C12 UNK     1      38.896  -8.421   4.343  1.00  0.00     0.014 A 
ATOM     14  C14 UNK     1      38.916  -9.287   3.249  1.00  0.00     0.001 A 
ATOM     15  C15 UNK     1      37.813  -9.363   2.399  1.00  0.00     0.000 A 
ATOM     16  C13 UNK     1      36.690  -8.571   2.642  1.00  0.00     0.001 A 
ATOM     17  C11 UNK     1      36.670  -7.705   3.735  1.00  0.00     0.014 A 
ENDBRANCH   5  12
BRANCH  10  18
ATOM     18  O4  UNK     1      38.751  -0.884   6.740  1.00  0.00    -0.361 OA
ATOM     19  H10 UNK     1      39.622  -0.880   6.309  1.00  0.00     0.217 HD
ENDBRANCH  10  18
BRANCH   7  20
ATOM     20  O2  UNK     1      37.490  -4.048  10.051  1.00  0.00    -0.360 OA
ATOM     21  H9  UNK     1      36.948  -4.848  10.125  1.00  0.00     0.217 HD
ENDBRANCH   7  20
TORSDOF 3
ENDMDL
MODEL 18
REMARK VINA RESULT:      -5.5      1.808      3.014
REMARK  3 active torsions:
REMARK  status: ('A' for Active; 'I' for Inactive)
REMARK    1  A    between atoms: O2_2  and  C6_10 
REMARK    2  A    between atoms: O4_4  and  C9_13 
REMARK    3  A    between atoms: C3_7  and  C5_9 
ROOT
ATOM      1  O1  UNK     1      43.726   2.240   8.986  1.00  0.00    -0.309 OA
ATOM      2  O3  UNK     1      42.609  -1.548   9.990  1.00  0.00    -0.287 OA
ATOM      3  C1  UNK     1      42.015   0.733   9.825  1.00  0.00     0.081 A 
ATOM      4  C2  UNK     1      42.461   2.003   9.463  1.00  0.00     0.095 A 
ATOM      5  C3  UNK     1      44.598   1.169   8.868  1.00  0.00     0.090 A 
ATOM      6  C4  UNK     1      42.934  -0.407   9.693  1.00  0.00     0.190 A 
ATOM      7  C6  UNK     1      40.716   0.551  10.305  1.00  0.00     0.085 A 
ATOM      8  C7  UNK     1      44.284  -0.099   9.178  1.00  0.00     0.094 A 
ATOM      9  C8  UNK     1      41.608   3.101   9.577  1.00  0.00     0.075 A 
ATOM     10  C9  UNK     1      40.309   2.923  10.056  1.00  0.00     0.071 A 
ATOM     11  C10 UNK     1      39.864   1.650  10.418  1.00  0.00     0.074 A 
ENDROOT
BRANCH   5  12
ATOM     12  C5  UNK     1      45.928   1.533   8.341  1.00  0.00    -0.002 A 
ATOM     13  C12 UNK     1      46.035   2.347   7.210  1.00  0.00     0.014 A 
ATOM     14  C14 UNK     1      47.291   2.692   6.710  1.00  0.00     0.001 A 
ATOM     15  C15 UNK     1      48.445   2.224   7.340  1.00  0.00     0.000 A 
ATOM     16  C13 UNK     1      48.341   1.410   8.469  1.00  0.00     0.001 A 
ATOM     17  C11 UNK     1      47.085   1.066   8.968  1.00  0.00     0.014 A 
ENDBRANCH   5  12
BRANCH  10  18
ATOM     18  O4  UNK     1      39.474   3.993  10.168  1.00  0.00    -0.361 OA
ATOM     19  H10 UNK     1      39.561   4.369  11.060  1.00  0.00     0.217 HD
ENDBRANCH  10  18
BRANCH   7  20
ATOM     20  O2  UNK     1      40.233  -0.669  10.671  1.00  0.00    -0.360 OA
ATOM     21  H9  UNK     1      39.767  -0.609  11.519  1.00  0.00     0.217 HD
ENDBRANCH   7  20
TORSDOF 3
ENDMDL
MODEL 19
REMARK VINA RESULT:      -5.4      3.490      5.433
REMARK  3 active torsions:
REMARK  status: ('A' for Active; 'I' for Inactive)
REMARK    1  A    between atoms: O2_2  and  C6_10 
REMARK    2  A    between atoms: O4_4  and  C9_13 
REMARK    3  A    between atoms: C3_7  and  C5_9 
ROOT
ATOM      1  O1  UNK     1      39.548  -0.414   7.747  1.00  0.00    -0.309 OA
ATOM      2  O3  UNK     1      35.692  -0.039   9.008  1.00  0.00    -0.287 OA
ATOM      3  C1  UNK     1      37.294  -1.315   7.829  1.00  0.00     0.081 A 
ATOM      4  C2  UNK     1      38.628  -1.382   7.431  1.00  0.00     0.095 A 
ATOM      5  C3  UNK     1      39.129   0.679   8.488  1.00  0.00     0.090 A 
ATOM      6  C4  UNK     1      36.847  -0.161   8.623  1.00  0.00     0.190 A 
ATOM      7  C6  UNK     1      36.400  -2.330   7.478  1.00  0.00     0.085 A 
ATOM      8  C7  UNK     1      37.874   0.854   8.935  1.00  0.00     0.094 A 
ATOM      9  C8  UNK     1      39.078  -2.466   6.678  1.00  0.00     0.075 A 
ATOM     10  C9  UNK     1      38.188  -3.482   6.325  1.00  0.00     0.071 A 
ATOM     11  C10 UNK     1      36.853  -3.414   6.725  1.00  0.00     0.074 A 
ENDROOT
BRANCH   5  12
ATOM     12  C5  UNK     1      40.198   1.655   8.778  1.00  0.00    -0.002 A 
ATOM     13  C12 UNK     1      41.517   1.382   8.403  1.00  0.00     0.014 A 
ATOM     14  C14 UNK     1      42.528   2.303   8.677  1.00  0.00     0.001 A 
ATOM     15  C15 UNK     1      42.225   3.500   9.325  1.00  0.00     0.000 A 
ATOM     16  C13 UNK     1      40.910   3.776   9.700  1.00  0.00     0.001 A 
ATOM     17  C11 UNK     1      39.899   2.855   9.426  1.00  0.00     0.014 A 
ENDBRANCH   5  12
BRANCH  10  18
ATOM     18  O4  UNK     1      38.625  -4.543   5.591  1.00  0.00    -0.361 OA
ATOM     19  H10 UNK     1      38.167  -4.543   4.734  1.00  0.00     0.217 HD
ENDBRANCH  10  18
BRANCH   7  20
ATOM     20  O2  UNK     1      35.088  -2.311   7.843  1.00  0.00    -0.360 OA
ATOM     21  H9  UNK     1      34.518  -2.287   7.060  1.00  0.00     0.217 HD
ENDBRANCH   7  20
TORSDOF 3
ENDMDL
MODEL 20
REMARK VINA RESULT:      -5.4      3.561      5.499
REMARK  3 active torsions:
REMARK  status: ('A' for Active; 'I' for Inactive)
REMARK    1  A    between atoms: O2_2  and  C6_10 
REMARK    2  A    between atoms: O4_4  and  C9_13 
REMARK    3  A    between atoms: C3_7  and  C5_9 
ROOT
ATOM      1  O1  UNK     1      39.490  -0.380   7.747  1.00  0.00    -0.309 OA
ATOM      2  O3  UNK     1      35.635  -0.097   9.033  1.00  0.00    -0.287 OA
ATOM      3  C1  UNK     1      37.253  -1.323   7.824  1.00  0.00     0.081 A 
ATOM      4  C2  UNK     1      38.586  -1.358   7.418  1.00  0.00     0.095 A 
ATOM      5  C3  UNK     1      39.055   0.693   8.509  1.00  0.00     0.090 A 
ATOM      6  C4  UNK     1      36.789  -0.192   8.640  1.00  0.00     0.190 A 
ATOM      7  C6  UNK     1      36.377  -2.348   7.460  1.00  0.00     0.085 A 
ATOM      8  C7  UNK     1      37.800   0.837   8.964  1.00  0.00     0.094 A 
ATOM      9  C8  UNK     1      39.052  -2.422   6.645  1.00  0.00     0.075 A 
ATOM     10  C9  UNK     1      38.180  -3.448   6.279  1.00  0.00     0.071 A 
ATOM     11  C10 UNK     1      36.846  -3.411   6.687  1.00  0.00     0.074 A 
ENDROOT
BRANCH   5  12
ATOM     12  C5  UNK     1      40.107   1.683   8.809  1.00  0.00    -0.002 A 
ATOM     13  C12 UNK     1      39.783   2.876   9.461  1.00  0.00     0.014 A 
ATOM     14  C14 UNK     1      40.778   3.813   9.745  1.00  0.00     0.001 A 
ATOM     15  C15 UNK     1      42.100   3.559   9.379  1.00  0.00     0.000 A 
ATOM     16  C13 UNK     1      42.427   2.369   8.729  1.00  0.00     0.001 A 
ATOM     17  C11 UNK     1      41.433   1.433   8.445  1.00  0.00     0.014 A 
ENDBRANCH   5  12
BRANCH  10  18
ATOM     18  O4  UNK     1      38.632  -4.488   5.525  1.00  0.00    -0.361 OA
ATOM     19  H10 UNK     1      39.490  -4.246   5.137  1.00  0.00     0.217 HD
ENDBRANCH  10  18
BRANCH   7  20
ATOM     20  O2  UNK     1      35.067  -2.360   7.832  1.00  0.00    -0.360 OA
ATOM     21  H9  UNK     1      34.539  -2.873   7.201  1.00  0.00     0.217 HD
ENDBRANCH   7  20
TORSDOF 3
ENDMDL
