MODEL 1
REMARK VINA RESULT:      -8.2      0.000      0.000
REMARK  3 active torsions:
REMARK  status: ('A' for Active; 'I' for Inactive)
REMARK    1  A    between atoms: O2_2  and  C6_10 
REMARK    2  A    between atoms: O4_4  and  C9_13 
REMARK    3  A    between atoms: C3_7  and  C5_9 
ROOT
ATOM      1  O1  UNK     1      40.217  14.468  -0.007  1.00  0.00    -0.309 OA
ATOM      2  O3  UNK     1      41.891  11.552  -2.307  1.00  0.00    -0.287 OA
ATOM      3  C1  UNK     1      40.986  12.174  -0.215  1.00  0.00     0.081 A 
ATOM      4  C2  UNK     1      40.418  13.216   0.516  1.00  0.00     0.095 A 
ATOM      5  C3  UNK     1      40.603  14.707  -1.316  1.00  0.00     0.090 A 
ATOM      6  C4  UNK     1      41.389  12.420  -1.607  1.00  0.00     0.190 A 
ATOM      7  C6  UNK     1      41.167  10.918   0.369  1.00  0.00     0.085 A 
ATOM      8  C7  UNK     1      41.154  13.785  -2.122  1.00  0.00     0.094 A 
ATOM      9  C8  UNK     1      40.025  13.007   1.838  1.00  0.00     0.075 A 
ATOM     10  C9  UNK     1      40.205  11.754   2.426  1.00  0.00     0.071 A 
ATOM     11  C10 UNK     1      40.773  10.712   1.692  1.00  0.00     0.074 A 
ENDROOT
BRANCH   5  12
ATOM     12  C5  UNK     1      40.336  16.083  -1.780  1.00  0.00    -0.002 A 
ATOM     13  C12 UNK     1      40.651  16.456  -3.089  1.00  0.00     0.014 A 
ATOM     14  C14 UNK     1      40.399  17.756  -3.528  1.00  0.00     0.001 A 
ATOM     15  C15 UNK     1      39.832  18.688  -2.659  1.00  0.00     0.000 A 
ATOM     16  C13 UNK     1      39.517  18.319  -1.351  1.00  0.00     0.001 A 
ATOM     17  C11 UNK     1      39.768  17.020  -0.912  1.00  0.00     0.014 A 
ENDBRANCH   5  12
BRANCH  10  18
ATOM     18  O4  UNK     1      39.821  11.547   3.716  1.00  0.00    -0.361 OA
ATOM     19  H10 UNK     1      40.609  11.349   4.251  1.00  0.00     0.217 HD
ENDBRANCH  10  18
BRANCH   7  20
ATOM     20  O2  UNK     1      41.716   9.868  -0.303  1.00  0.00    -0.360 OA
ATOM     21  H9  UNK     1      42.624   9.711  -0.002  1.00  0.00     0.217 HD
ENDBRANCH   7  20
TORSDOF 3
ENDMDL
MODEL 2
REMARK VINA RESULT:      -7.8      2.428      6.382
REMARK  3 active torsions:
REMARK  status: ('A' for Active; 'I' for Inactive)
REMARK    1  A    between atoms: O2_2  and  C6_10 
REMARK    2  A    between atoms: O4_4  and  C9_13 
REMARK    3  A    between atoms: C3_7  and  C5_9 
ROOT
ATOM      1  O1  UNK     1      39.763  15.636  -0.253  1.00  0.00    -0.309 OA
ATOM      2  O3  UNK     1      40.975  17.247  -3.794  1.00  0.00    -0.287 OA
ATOM      3  C1  UNK     1      39.882  17.566  -1.723  1.00  0.00     0.081 A 
ATOM      4  C2  UNK     1      39.497  16.953  -0.532  1.00  0.00     0.095 A 
ATOM      5  C3  UNK     1      40.437  14.883  -1.202  1.00  0.00     0.090 A 
ATOM      6  C4  UNK     1      40.605  16.773  -2.728  1.00  0.00     0.190 A 
ATOM      7  C6  UNK     1      39.585  18.911  -1.953  1.00  0.00     0.085 A 
ATOM      8  C7  UNK     1      40.864  15.360  -2.382  1.00  0.00     0.094 A 
ATOM      9  C8  UNK     1      38.812  17.683   0.439  1.00  0.00     0.075 A 
ATOM     10  C9  UNK     1      38.513  19.027   0.213  1.00  0.00     0.071 A 
ATOM     11  C10 UNK     1      38.899  19.640  -0.980  1.00  0.00     0.074 A 
ENDROOT
BRANCH   5  12
ATOM     12  C5  UNK     1      40.677  13.483  -0.798  1.00  0.00    -0.002 A 
ATOM     13  C12 UNK     1      40.202  13.016   0.431  1.00  0.00     0.014 A 
ATOM     14  C14 UNK     1      40.428  11.694   0.813  1.00  0.00     0.001 A 
ATOM     15  C15 UNK     1      41.129  10.834  -0.032  1.00  0.00     0.000 A 
ATOM     16  C13 UNK     1      41.605  11.297  -1.259  1.00  0.00     0.001 A 
ATOM     17  C11 UNK     1      41.379  12.618  -1.642  1.00  0.00     0.014 A 
ENDBRANCH   5  12
BRANCH  10  18
ATOM     18  O4  UNK     1      37.845  19.744   1.160  1.00  0.00    -0.361 OA
ATOM     19  H10 UNK     1      36.891  19.582   1.062  1.00  0.00     0.217 HD
ENDBRANCH  10  18
BRANCH   7  20
ATOM     20  O2  UNK     1      39.939  19.555  -3.100  1.00  0.00    -0.360 OA
ATOM     21  H9  UNK     1      40.694  20.142  -2.940  1.00  0.00     0.217 HD
ENDBRANCH   7  20
TORSDOF 3
ENDMDL
MODEL 3
REMARK VINA RESULT:      -7.8      2.427      6.286
REMARK  3 active torsions:
REMARK  status: ('A' for Active; 'I' for Inactive)
REMARK    1  A    between atoms: O2_2  and  C6_10 
REMARK    2  A    between atoms: O4_4  and  C9_13 
REMARK    3  A    between atoms: C3_7  and  C5_9 
ROOT
ATOM      1  O1  UNK     1      39.764  15.636  -0.248  1.00  0.00    -0.309 OA
ATOM      2  O3  UNK     1      40.972  17.244  -3.791  1.00  0.00    -0.287 OA
ATOM      3  C1  UNK     1      39.881  17.565  -1.720  1.00  0.00     0.081 A 
ATOM      4  C2  UNK     1      39.497  16.953  -0.528  1.00  0.00     0.095 A 
ATOM      5  C3  UNK     1      40.438  14.882  -1.196  1.00  0.00     0.090 A 
ATOM      6  C4  UNK     1      40.604  16.771  -2.725  1.00  0.00     0.190 A 
ATOM      7  C6  UNK     1      39.583  18.910  -1.952  1.00  0.00     0.085 A 
ATOM      8  C7  UNK     1      40.864  15.359  -2.377  1.00  0.00     0.094 A 
ATOM      9  C8  UNK     1      38.812  17.684   0.443  1.00  0.00     0.075 A 
ATOM     10  C9  UNK     1      38.512  19.028   0.215  1.00  0.00     0.071 A 
ATOM     11  C10 UNK     1      38.897  19.639  -0.979  1.00  0.00     0.074 A 
ENDROOT
BRANCH   5  12
ATOM     12  C5  UNK     1      40.678  13.483  -0.791  1.00  0.00    -0.002 A 
ATOM     13  C12 UNK     1      41.371  12.616  -1.641  1.00  0.00     0.014 A 
ATOM     14  C14 UNK     1      41.598  11.294  -1.259  1.00  0.00     0.001 A 
ATOM     15  C15 UNK     1      41.134  10.834  -0.026  1.00  0.00     0.000 A 
ATOM     16  C13 UNK     1      40.442  11.697   0.824  1.00  0.00     0.001 A 
ATOM     17  C11 UNK     1      40.215  13.019   0.442  1.00  0.00     0.014 A 
ENDBRANCH   5  12
BRANCH  10  18
ATOM     18  O4  UNK     1      37.844  19.744   1.161  1.00  0.00    -0.361 OA
ATOM     19  H10 UNK     1      36.975  19.336   1.310  1.00  0.00     0.217 HD
ENDBRANCH  10  18
BRANCH   7  20
ATOM     20  O2  UNK     1      39.936  19.553  -3.099  1.00  0.00    -0.360 OA
ATOM     21  H9  UNK     1      39.165  19.986  -3.497  1.00  0.00     0.217 HD
ENDBRANCH   7  20
TORSDOF 3
ENDMDL
MODEL 4
REMARK VINA RESULT:      -7.6      2.602      4.336
REMARK  3 active torsions:
REMARK  status: ('A' for Active; 'I' for Inactive)
REMARK    1  A    between atoms: O2_2  and  C6_10 
REMARK    2  A    between atoms: O4_4  and  C9_13 
REMARK    3  A    between atoms: C3_7  and  C5_9 
ROOT
ATOM      1  O1  UNK     1      40.343  16.999  -1.222  1.00  0.00    -0.309 OA
ATOM      2  O3  UNK     1      36.886  14.924  -0.634  1.00  0.00    -0.287 OA
ATOM      3  C1  UNK     1      39.193  14.861  -1.145  1.00  0.00     0.081 A 
ATOM      4  C2  UNK     1      40.339  15.631  -1.332  1.00  0.00     0.095 A 
ATOM      5  C3  UNK     1      39.152  17.641  -0.919  1.00  0.00     0.090 A 
ATOM      6  C4  UNK     1      37.930  15.537  -0.814  1.00  0.00     0.190 A 
ATOM      7  C6  UNK     1      39.248  13.471  -1.269  1.00  0.00     0.085 A 
ATOM      8  C7  UNK     1      37.986  17.010  -0.710  1.00  0.00     0.094 A 
ATOM      9  C8  UNK     1      41.551  15.015  -1.644  1.00  0.00     0.075 A 
ATOM     10  C9  UNK     1      41.610  13.626  -1.769  1.00  0.00     0.071 A 
ATOM     11  C10 UNK     1      40.461  12.857  -1.581  1.00  0.00     0.074 A 
ENDROOT
BRANCH   5  12
ATOM     12  C5  UNK     1      39.270  19.109  -0.818  1.00  0.00    -0.002 A 
ATOM     13  C12 UNK     1      38.597  19.799   0.194  1.00  0.00     0.014 A 
ATOM     14  C14 UNK     1      38.707  21.187   0.289  1.00  0.00     0.001 A 
ATOM     15  C15 UNK     1      39.491  21.889  -0.626  1.00  0.00     0.000 A 
ATOM     16  C13 UNK     1      40.164  21.203  -1.638  1.00  0.00     0.001 A 
ATOM     17  C11 UNK     1      40.054  19.816  -1.734  1.00  0.00     0.014 A 
ENDBRANCH   5  12
BRANCH  10  18
ATOM     18  O4  UNK     1      42.792  13.021  -2.073  1.00  0.00    -0.361 OA
ATOM     19  H10 UNK     1      42.957  12.312  -1.428  1.00  0.00     0.217 HD
ENDBRANCH  10  18
BRANCH   7  20
ATOM     20  O2  UNK     1      38.156  12.675  -1.095  1.00  0.00    -0.360 OA
ATOM     21  H9  UNK     1      38.071  12.413  -0.166  1.00  0.00     0.217 HD
ENDBRANCH   7  20
TORSDOF 3
ENDMDL
MODEL 5
REMARK VINA RESULT:      -7.3      2.161      6.203
REMARK  3 active torsions:
REMARK  status: ('A' for Active; 'I' for Inactive)
REMARK    1  A    between atoms: O2_2  and  C6_10 
REMARK    2  A    between atoms: O4_4  and  C9_13 
REMARK    3  A    between atoms: C3_7  and  C5_9 
ROOT
ATOM      1  O1  UNK     1      39.635  15.148  -0.010  1.00  0.00    -0.309 OA
ATOM      2  O3  UNK     1      41.730  15.840  -3.435  1.00  0.00    -0.287 OA
ATOM      3  C1  UNK     1      40.190  16.651  -1.836  1.00  0.00     0.081 A 
ATOM      4  C2  UNK     1      39.505  16.349  -0.661  1.00  0.00     0.095 A 
ATOM      5  C3  UNK     1      40.480  14.191  -0.552  1.00  0.00     0.090 A 
ATOM      6  C4  UNK     1      41.095  15.643  -2.409  1.00  0.00     0.190 A 
ATOM      7  C6  UNK     1      40.020  17.891  -2.455  1.00  0.00     0.085 A 
ATOM      8  C7  UNK     1      41.198  14.365  -1.673  1.00  0.00     0.094 A 
ATOM      9  C8  UNK     1      38.642  17.288  -0.096  1.00  0.00     0.075 A 
ATOM     10  C9  UNK     1      38.468  18.529  -0.711  1.00  0.00     0.071 A 
ATOM     11  C10 UNK     1      39.156  18.829  -1.888  1.00  0.00     0.074 A 
ENDROOT
BRANCH   5  12
ATOM     12  C5  UNK     1      40.551  12.941   0.230  1.00  0.00    -0.002 A 
ATOM     13  C12 UNK     1      40.880  11.738  -0.401  1.00  0.00     0.014 A 
ATOM     14  C14 UNK     1      40.947  10.555   0.337  1.00  0.00     0.001 A 
ATOM     15  C15 UNK     1      40.686  10.572   1.707  1.00  0.00     0.000 A 
ATOM     16  C13 UNK     1      40.356  11.772   2.339  1.00  0.00     0.001 A 
ATOM     17  C11 UNK     1      40.290  12.954   1.602  1.00  0.00     0.014 A 
ENDBRANCH   5  12
BRANCH  10  18
ATOM     18  O4  UNK     1      37.628  19.448  -0.161  1.00  0.00    -0.361 OA
ATOM     19  H10 UNK     1      37.190  19.941  -0.876  1.00  0.00     0.217 HD
ENDBRANCH  10  18
BRANCH   7  20
ATOM     20  O2  UNK     1      40.667  18.233  -3.604  1.00  0.00    -0.360 OA
ATOM     21  H9  UNK     1      40.155  17.954  -4.378  1.00  0.00     0.217 HD
ENDBRANCH   7  20
TORSDOF 3
ENDMDL
MODEL 6
REMARK VINA RESULT:      -7.2      2.424      7.001
REMARK  3 active torsions:
REMARK  status: ('A' for Active; 'I' for Inactive)
REMARK    1  A    between atoms: O2_2  and  C6_10 
REMARK    2  A    between atoms: O4_4  and  C9_13 
REMARK    3  A    between atoms: C3_7  and  C5_9 
ROOT
ATOM      1  O1  UNK     1      40.731  15.123  -2.142  1.00  0.00    -0.309 OA
ATOM      2  O3  UNK     1      38.951  17.820   0.339  1.00  0.00    -0.287 OA
ATOM      3  C1  UNK     1      39.928  17.384  -1.769  1.00  0.00     0.081 A 
ATOM      4  C2  UNK     1      40.529  16.413  -2.566  1.00  0.00     0.095 A 
ATOM      5  C3  UNK     1      40.326  14.777  -0.863  1.00  0.00     0.090 A 
ATOM      6  C4  UNK     1      39.488  17.019  -0.414  1.00  0.00     0.190 A 
ATOM      7  C6  UNK     1      39.747  18.682  -2.252  1.00  0.00     0.085 A 
ATOM      8  C7  UNK     1      39.730  15.620  -0.004  1.00  0.00     0.094 A 
ATOM      9  C8  UNK     1      40.953  16.733  -3.855  1.00  0.00     0.075 A 
ATOM     10  C9  UNK     1      40.775  18.028  -4.342  1.00  0.00     0.071 A 
ATOM     11  C10 UNK     1      40.172  19.000  -3.542  1.00  0.00     0.074 A 
ENDROOT
BRANCH   5  12
ATOM     12  C5  UNK     1      40.585  13.366  -0.512  1.00  0.00    -0.002 A 
ATOM     13  C12 UNK     1      40.148  12.857   0.714  1.00  0.00     0.014 A 
ATOM     14  C14 UNK     1      40.393  11.524   1.047  1.00  0.00     0.001 A 
ATOM     15  C15 UNK     1      41.073  10.696   0.155  1.00  0.00     0.000 A 
ATOM     16  C13 UNK     1      41.511  11.202  -1.070  1.00  0.00     0.001 A 
ATOM     17  C11 UNK     1      41.266  12.534  -1.403  1.00  0.00     0.014 A 
ENDBRANCH   5  12
BRANCH  10  18
ATOM     18  O4  UNK     1      41.187  18.344  -5.602  1.00  0.00    -0.361 OA
ATOM     19  H10 UNK     1      41.562  17.550  -6.019  1.00  0.00     0.217 HD
ENDBRANCH  10  18
BRANCH   7  20
ATOM     20  O2  UNK     1      39.164  19.667  -1.513  1.00  0.00    -0.360 OA
ATOM     21  H9  UNK     1      38.523  19.290  -0.891  1.00  0.00     0.217 HD
ENDBRANCH   7  20
TORSDOF 3
ENDMDL
MODEL 7
REMARK VINA RESULT:      -6.7      1.641      2.505
REMARK  3 active torsions:
REMARK  status: ('A' for Active; 'I' for Inactive)
REMARK    1  A    between atoms: O2_2  and  C6_10 
REMARK    2  A    between atoms: O4_4  and  C9_13 
REMARK    3  A    between atoms: C3_7  and  C5_9 
ROOT
ATOM      1  O1  UNK     1      39.448  15.253  -0.128  1.00  0.00    -0.309 OA
ATOM      2  O3  UNK     1      42.473  14.703  -2.801  1.00  0.00    -0.287 OA
ATOM      3  C1  UNK     1      40.994  13.738  -1.231  1.00  0.00     0.081 A 
ATOM      4  C2  UNK     1      39.960  13.996  -0.333  1.00  0.00     0.095 A 
ATOM      5  C3  UNK     1      39.990  16.311  -0.841  1.00  0.00     0.090 A 
ATOM      6  C4  UNK     1      41.566  14.857  -1.995  1.00  0.00     0.190 A 
ATOM      7  C6  UNK     1      41.476  12.438  -1.399  1.00  0.00     0.085 A 
ATOM      8  C7  UNK     1      40.983  16.189  -1.737  1.00  0.00     0.094 A 
ATOM      9  C8  UNK     1      39.399  12.953   0.403  1.00  0.00     0.075 A 
ATOM     10  C9  UNK     1      39.877  11.652   0.238  1.00  0.00     0.071 A 
ATOM     11  C10 UNK     1      40.913  11.396  -0.661  1.00  0.00     0.074 A 
ENDROOT
BRANCH   5  12
ATOM     12  C5  UNK     1      39.363  17.615  -0.550  1.00  0.00    -0.002 A 
ATOM     13  C12 UNK     1      39.550  18.693  -1.419  1.00  0.00     0.014 A 
ATOM     14  C14 UNK     1      38.958  19.927  -1.144  1.00  0.00     0.001 A 
ATOM     15  C15 UNK     1      38.176  20.085  -0.000  1.00  0.00     0.000 A 
ATOM     16  C13 UNK     1      37.987  19.011   0.870  1.00  0.00     0.001 A 
ATOM     17  C11 UNK     1      38.578  17.778   0.595  1.00  0.00     0.014 A 
ENDBRANCH   5  12
BRANCH  10  18
ATOM     18  O4  UNK     1      39.331  10.631   0.955  1.00  0.00    -0.361 OA
ATOM     19  H10 UNK     1      38.507  10.941   1.367  1.00  0.00     0.217 HD
ENDBRANCH  10  18
BRANCH   7  20
ATOM     20  O2  UNK     1      42.484  12.135  -2.263  1.00  0.00    -0.360 OA
ATOM     21  H9  UNK     1      43.298  11.930  -1.778  1.00  0.00     0.217 HD
ENDBRANCH   7  20
TORSDOF 3
ENDMDL
MODEL 8
REMARK VINA RESULT:      -6.5      3.295      5.638
REMARK  3 active torsions:
REMARK  status: ('A' for Active; 'I' for Inactive)
REMARK    1  A    between atoms: O2_2  and  C6_10 
REMARK    2  A    between atoms: O4_4  and  C9_13 
REMARK    3  A    between atoms: C3_7  and  C5_9 
ROOT
ATOM      1  O1  UNK     1      39.531  18.690  -0.710  1.00  0.00    -0.309 OA
ATOM      2  O3  UNK     1      40.693  18.322  -4.598  1.00  0.00    -0.287 OA
ATOM      3  C1  UNK     1      39.933  17.257  -2.630  1.00  0.00     0.081 A 
ATOM      4  C2  UNK     1      39.546  17.454  -1.306  1.00  0.00     0.095 A 
ATOM      5  C3  UNK     1      39.926  19.789  -1.458  1.00  0.00     0.090 A 
ATOM      6  C4  UNK     1      40.344  18.421  -3.430  1.00  0.00     0.190 A 
ATOM      7  C6  UNK     1      39.929  15.975  -3.185  1.00  0.00     0.085 A 
ATOM      8  C7  UNK     1      40.313  19.728  -2.743  1.00  0.00     0.094 A 
ATOM      9  C8  UNK     1      39.150  16.367  -0.526  1.00  0.00     0.075 A 
ATOM     10  C9  UNK     1      39.145  15.085  -1.076  1.00  0.00     0.071 A 
ATOM     11  C10 UNK     1      39.533  14.890  -2.403  1.00  0.00     0.074 A 
ENDROOT
BRANCH   5  12
ATOM     12  C5  UNK     1      39.866  21.068  -0.725  1.00  0.00    -0.002 A 
ATOM     13  C12 UNK     1      40.427  22.221  -1.279  1.00  0.00     0.014 A 
ATOM     14  C14 UNK     1      40.371  23.431  -0.586  1.00  0.00     0.001 A 
ATOM     15  C15 UNK     1      39.753  23.491   0.663  1.00  0.00     0.000 A 
ATOM     16  C13 UNK     1      39.192  22.342   1.220  1.00  0.00     0.001 A 
ATOM     17  C11 UNK     1      39.247  21.133   0.527  1.00  0.00     0.014 A 
ENDBRANCH   5  12
BRANCH  10  18
ATOM     18  O4  UNK     1      38.757  14.022  -0.318  1.00  0.00    -0.361 OA
ATOM     19  H10 UNK     1      38.939  14.219   0.617  1.00  0.00     0.217 HD
ENDBRANCH  10  18
BRANCH   7  20
ATOM     20  O2  UNK     1      40.298  15.731  -4.473  1.00  0.00    -0.360 OA
ATOM     21  H9  UNK     1      39.880  14.920  -4.798  1.00  0.00     0.217 HD
ENDBRANCH   7  20
TORSDOF 3
ENDMDL
MODEL 9
REMARK VINA RESULT:      -6.0     15.016     16.904
REMARK  3 active torsions:
REMARK  status: ('A' for Active; 'I' for Inactive)
REMARK    1  A    between atoms: O2_2  and  C6_10 
REMARK    2  A    between atoms: O4_4  and  C9_13 
REMARK    3  A    between atoms: C3_7  and  C5_9 
ROOT
ATOM      1  O1  UNK     1      43.996   0.074   8.972  1.00  0.00    -0.309 OA
ATOM      2  O3  UNK     1      40.961   2.246   7.337  1.00  0.00    -0.287 OA
ATOM      3  C1  UNK     1      41.609   0.387   8.644  1.00  0.00     0.081 A 
ATOM      4  C2  UNK     1      42.694  -0.309   9.175  1.00  0.00     0.095 A 
ATOM      5  C3  UNK     1      44.241   1.198   8.200  1.00  0.00     0.090 A 
ATOM      6  C4  UNK     1      41.864   1.586   7.832  1.00  0.00     0.190 A 
ATOM      7  C6  UNK     1      40.304  -0.049   8.883  1.00  0.00     0.085 A 
ATOM      8  C7  UNK     1      43.282   1.955   7.641  1.00  0.00     0.094 A 
ATOM      9  C8  UNK     1      42.479  -1.449   9.951  1.00  0.00     0.075 A 
ATOM     10  C9  UNK     1      41.177  -1.888  10.192  1.00  0.00     0.071 A 
ATOM     11  C10 UNK     1      40.092  -1.189   9.660  1.00  0.00     0.074 A 
ENDROOT
BRANCH   5  12
ATOM     12  C5  UNK     1      45.672   1.525   8.051  1.00  0.00    -0.002 A 
ATOM     13  C12 UNK     1      46.103   2.324   6.988  1.00  0.00     0.014 A 
ATOM     14  C14 UNK     1      47.457   2.632   6.847  1.00  0.00     0.001 A 
ATOM     15  C15 UNK     1      48.383   2.144   7.768  1.00  0.00     0.000 A 
ATOM     16  C13 UNK     1      47.957   1.346   8.830  1.00  0.00     0.001 A 
ATOM     17  C11 UNK     1      46.604   1.038   8.972  1.00  0.00     0.014 A 
ENDBRANCH   5  12
BRANCH  10  18
ATOM     18  O4  UNK     1      40.964  -2.999  10.950  1.00  0.00    -0.361 OA
ATOM     19  H10 UNK     1      40.351  -3.589  10.479  1.00  0.00     0.217 HD
ENDBRANCH  10  18
BRANCH   7  20
ATOM     20  O2  UNK     1      39.212   0.596   8.388  1.00  0.00    -0.360 OA
ATOM     21  H9  UNK     1      39.377   1.550   8.332  1.00  0.00     0.217 HD
ENDBRANCH   7  20
TORSDOF 3
ENDMDL
MODEL 10
REMARK VINA RESULT:      -6.0     14.553     16.758
REMARK  3 active torsions:
REMARK  status: ('A' for Active; 'I' for Inactive)
REMARK    1  A    between atoms: O2_2  and  C6_10 
REMARK    2  A    between atoms: O4_4  and  C9_13 
REMARK    3  A    between atoms: C3_7  and  C5_9 
ROOT
ATOM      1  O1  UNK     1      43.294   1.516   7.911  1.00  0.00    -0.309 OA
ATOM      2  O3  UNK     1      42.023  -1.203  10.666  1.00  0.00    -0.287 OA
ATOM      3  C1  UNK     1      41.450   0.355   8.984  1.00  0.00     0.081 A 
ATOM      4  C2  UNK     1      41.953   1.270   8.061  1.00  0.00     0.095 A 
ATOM      5  C3  UNK     1      44.186   0.828   8.719  1.00  0.00     0.090 A 
ATOM      6  C4  UNK     1      42.393  -0.383   9.836  1.00  0.00     0.190 A 
ATOM      7  C6  UNK     1      40.074   0.145   9.093  1.00  0.00     0.085 A 
ATOM      8  C7  UNK     1      43.826  -0.081   9.639  1.00  0.00     0.094 A 
ATOM      9  C8  UNK     1      41.080   1.983   7.238  1.00  0.00     0.075 A 
ATOM     10  C9  UNK     1      39.704   1.776   7.344  1.00  0.00     0.071 A 
ATOM     11  C10 UNK     1      39.202   0.859   8.269  1.00  0.00     0.074 A 
ENDROOT
BRANCH   5  12
ATOM     12  C5  UNK     1      45.602   1.163   8.471  1.00  0.00    -0.002 A 
ATOM     13  C12 UNK     1      45.961   1.901   7.340  1.00  0.00     0.014 A 
ATOM     14  C14 UNK     1      47.300   2.217   7.105  1.00  0.00     0.001 A 
ATOM     15  C15 UNK     1      48.283   1.797   8.000  1.00  0.00     0.000 A 
ATOM     16  C13 UNK     1      47.928   1.061   9.131  1.00  0.00     0.001 A 
ATOM     17  C11 UNK     1      46.591   0.745   9.366  1.00  0.00     0.014 A 
ENDBRANCH   5  12
BRANCH  10  18
ATOM     18  O4  UNK     1      38.849   2.469   6.542  1.00  0.00    -0.361 OA
ATOM     19  H10 UNK     1      38.682   3.341   6.938  1.00  0.00     0.217 HD
ENDBRANCH  10  18
BRANCH   7  20
ATOM     20  O2  UNK     1      39.534  -0.738   9.978  1.00  0.00    -0.360 OA
ATOM     21  H9  UNK     1      39.656  -0.425  10.887  1.00  0.00     0.217 HD
ENDBRANCH   7  20
TORSDOF 3
ENDMDL
MODEL 11
REMARK VINA RESULT:      -6.0     14.731     16.410
REMARK  3 active torsions:
REMARK  status: ('A' for Active; 'I' for Inactive)
REMARK    1  A    between atoms: O2_2  and  C6_10 
REMARK    2  A    between atoms: O4_4  and  C9_13 
REMARK    3  A    between atoms: C3_7  and  C5_9 
ROOT
ATOM      1  O1  UNK     1      43.575   1.336   8.455  1.00  0.00    -0.309 OA
ATOM      2  O3  UNK     1      42.722   4.750  10.509  1.00  0.00    -0.287 OA
ATOM      3  C1  UNK     1      41.923   2.955   9.196  1.00  0.00     0.081 A 
ATOM      4  C2  UNK     1      42.283   1.796   8.512  1.00  0.00     0.095 A 
ATOM      5  C3  UNK     1      44.564   2.064   9.099  1.00  0.00     0.090 A 
ATOM      6  C4  UNK     1      42.967   3.725   9.888  1.00  0.00     0.190 A 
ATOM      7  C6  UNK     1      40.591   3.375   9.221  1.00  0.00     0.085 A 
ATOM      8  C7  UNK     1      44.341   3.191   9.794  1.00  0.00     0.094 A 
ATOM      9  C8  UNK     1      41.311   1.046   7.849  1.00  0.00     0.075 A 
ATOM     10  C9  UNK     1      39.980   1.462   7.871  1.00  0.00     0.071 A 
ATOM     11  C10 UNK     1      39.621   2.624   8.557  1.00  0.00     0.074 A 
ENDROOT
BRANCH   5  12
ATOM     12  C5  UNK     1      45.914   1.479   8.980  1.00  0.00    -0.002 A 
ATOM     13  C12 UNK     1      46.785   1.924   7.982  1.00  0.00     0.014 A 
ATOM     14  C14 UNK     1      48.062   1.372   7.868  1.00  0.00     0.001 A 
ATOM     15  C15 UNK     1      48.471   0.373   8.751  1.00  0.00     0.000 A 
ATOM     16  C13 UNK     1      47.603  -0.074   9.749  1.00  0.00     0.001 A 
ATOM     17  C11 UNK     1      46.328   0.479   9.863  1.00  0.00     0.014 A 
ENDBRANCH   5  12
BRANCH  10  18
ATOM     18  O4  UNK     1      39.029   0.733   7.225  1.00  0.00    -0.361 OA
ATOM     19  H10 UNK     1      38.222   0.715   7.768  1.00  0.00     0.217 HD
ENDBRANCH  10  18
BRANCH   7  20
ATOM     20  O2  UNK     1      40.188   4.500   9.875  1.00  0.00    -0.360 OA
ATOM     21  H9  UNK     1      39.580   4.275  10.595  1.00  0.00     0.217 HD
ENDBRANCH   7  20
TORSDOF 3
ENDMDL
MODEL 12
REMARK VINA RESULT:      -6.0     14.747     16.669
REMARK  3 active torsions:
REMARK  status: ('A' for Active; 'I' for Inactive)
REMARK    1  A    between atoms: O2_2  and  C6_10 
REMARK    2  A    between atoms: O4_4  and  C9_13 
REMARK    3  A    between atoms: C3_7  and  C5_9 
ROOT
ATOM      1  O1  UNK     1      44.833   1.834   7.538  1.00  0.00    -0.309 OA
ATOM      2  O3  UNK     1      46.660   0.411  10.891  1.00  0.00    -0.287 OA
ATOM      3  C1  UNK     1      46.880   1.496   8.803  1.00  0.00     0.081 A 
ATOM      4  C2  UNK     1      46.192   1.961   7.683  1.00  0.00     0.095 A 
ATOM      5  C3  UNK     1      44.117   1.209   8.547  1.00  0.00     0.090 A 
ATOM      6  C4  UNK     1      46.122   0.841   9.879  1.00  0.00     0.190 A 
ATOM      7  C6  UNK     1      48.265   1.652   8.897  1.00  0.00     0.085 A 
ATOM      8  C7  UNK     1      44.664   0.726   9.675  1.00  0.00     0.094 A 
ATOM      9  C8  UNK     1      46.887   2.588   6.649  1.00  0.00     0.075 A 
ATOM     10  C9  UNK     1      48.270   2.746   6.738  1.00  0.00     0.071 A 
ATOM     11  C10 UNK     1      48.957   2.279   7.861  1.00  0.00     0.074 A 
ENDROOT
BRANCH   5  12
ATOM     12  C5  UNK     1      42.665   1.132   8.294  1.00  0.00    -0.002 A 
ATOM     13  C12 UNK     1      42.009   2.183   7.647  1.00  0.00     0.014 A 
ATOM     14  C14 UNK     1      40.636   2.111   7.407  1.00  0.00     0.001 A 
ATOM     15  C15 UNK     1      39.915   0.988   7.813  1.00  0.00     0.000 A 
ATOM     16  C13 UNK     1      40.567  -0.063   8.458  1.00  0.00     0.001 A 
ATOM     17  C11 UNK     1      41.939   0.009   8.698  1.00  0.00     0.014 A 
ENDBRANCH   5  12
BRANCH  10  18
ATOM     18  O4  UNK     1      48.951   3.358   5.730  1.00  0.00    -0.361 OA
ATOM     19  H10 UNK     1      49.618   3.951   6.116  1.00  0.00     0.217 HD
ENDBRANCH  10  18
BRANCH   7  20
ATOM     20  O2  UNK     1      48.981   1.215   9.969  1.00  0.00    -0.360 OA
ATOM     21  H9  UNK     1      48.965   1.875  10.680  1.00  0.00     0.217 HD
ENDBRANCH   7  20
TORSDOF 3
ENDMDL
MODEL 13
REMARK VINA RESULT:      -6.0     13.187     15.019
REMARK  3 active torsions:
REMARK  status: ('A' for Active; 'I' for Inactive)
REMARK    1  A    between atoms: O2_2  and  C6_10 
REMARK    2  A    between atoms: O4_4  and  C9_13 
REMARK    3  A    between atoms: C3_7  and  C5_9 
ROOT
ATOM      1  O1  UNK     1      38.858  22.217  11.006  1.00  0.00    -0.309 OA
ATOM      2  O3  UNK     1      37.590  19.780  14.015  1.00  0.00    -0.287 OA
ATOM      3  C1  UNK     1      39.215  20.233  12.360  1.00  0.00     0.081 A 
ATOM      4  C2  UNK     1      39.592  21.107  11.343  1.00  0.00     0.095 A 
ATOM      5  C3  UNK     1      37.688  22.472  11.703  1.00  0.00     0.090 A 
ATOM      6  C4  UNK     1      37.979  20.504  13.109  1.00  0.00     0.190 A 
ATOM      7  C6  UNK     1      40.002  19.118  12.661  1.00  0.00     0.085 A 
ATOM      8  C7  UNK     1      37.224  21.708  12.706  1.00  0.00     0.094 A 
ATOM      9  C8  UNK     1      40.761  20.874  10.619  1.00  0.00     0.075 A 
ATOM     10  C9  UNK     1      41.550  19.761  10.916  1.00  0.00     0.071 A 
ATOM     11  C10 UNK     1      41.171  18.886  11.935  1.00  0.00     0.074 A 
ENDROOT
BRANCH   5  12
ATOM     12  C5  UNK     1      36.981  23.691  11.265  1.00  0.00    -0.002 A 
ATOM     13  C12 UNK     1      37.355  24.939  11.770  1.00  0.00     0.014 A 
ATOM     14  C14 UNK     1      36.687  26.092  11.356  1.00  0.00     0.001 A 
ATOM     15  C15 UNK     1      35.643  26.001  10.436  1.00  0.00     0.000 A 
ATOM     16  C13 UNK     1      35.267  24.757   9.930  1.00  0.00     0.001 A 
ATOM     17  C11 UNK     1      35.934  23.604  10.343  1.00  0.00     0.014 A 
ENDBRANCH   5  12
BRANCH  10  18
ATOM     18  O4  UNK     1      42.693  19.531  10.212  1.00  0.00    -0.361 OA
ATOM     19  H10 UNK     1      43.208  20.354  10.169  1.00  0.00     0.217 HD
ENDBRANCH  10  18
BRANCH   7  20
ATOM     20  O2  UNK     1      39.677  18.234  13.645  1.00  0.00    -0.360 OA
ATOM     21  H9  UNK     1      40.185  17.415  13.547  1.00  0.00     0.217 HD
ENDBRANCH   7  20
TORSDOF 3
ENDMDL
MODEL 14
REMARK VINA RESULT:      -5.9     14.925     16.858
REMARK  3 active torsions:
REMARK  status: ('A' for Active; 'I' for Inactive)
REMARK    1  A    between atoms: O2_2  and  C6_10 
REMARK    2  A    between atoms: O4_4  and  C9_13 
REMARK    3  A    between atoms: C3_7  and  C5_9 
ROOT
ATOM      1  O1  UNK     1      41.887  -0.428   8.427  1.00  0.00    -0.309 OA
ATOM      2  O3  UNK     1      39.163   2.301   7.109  1.00  0.00    -0.287 OA
ATOM      3  C1  UNK     1      39.578   0.114   7.902  1.00  0.00     0.081 A 
ATOM      4  C2  UNK     1      40.561  -0.770   8.345  1.00  0.00     0.095 A 
ATOM      5  C3  UNK     1      42.264   0.851   8.045  1.00  0.00     0.090 A 
ATOM      6  C4  UNK     1      39.973   1.473   7.505  1.00  0.00     0.190 A 
ATOM      7  C6  UNK     1      38.242  -0.289   7.839  1.00  0.00     0.085 A 
ATOM      8  C7  UNK     1      41.412   1.792   7.609  1.00  0.00     0.094 A 
ATOM      9  C8  UNK     1      40.213  -2.065   8.729  1.00  0.00     0.075 A 
ATOM     10  C9  UNK     1      38.879  -2.472   8.667  1.00  0.00     0.071 A 
ATOM     11  C10 UNK     1      37.896  -1.585   8.224  1.00  0.00     0.074 A 
ENDROOT
BRANCH   5  12
ATOM     12  C5  UNK     1      43.710   1.115   8.179  1.00  0.00    -0.002 A 
ATOM     13  C12 UNK     1      44.427   0.573   9.249  1.00  0.00     0.014 A 
ATOM     14  C14 UNK     1      45.793   0.823   9.377  1.00  0.00     0.001 A 
ATOM     15  C15 UNK     1      46.448   1.615   8.434  1.00  0.00     0.000 A 
ATOM     16  C13 UNK     1      45.736   2.158   7.364  1.00  0.00     0.001 A 
ATOM     17  C11 UNK     1      44.370   1.908   7.237  1.00  0.00     0.014 A 
ENDBRANCH   5  12
BRANCH  10  18
ATOM     18  O4  UNK     1      38.536  -3.735   9.043  1.00  0.00    -0.361 OA
ATOM     19  H10 UNK     1      37.581  -3.761   9.225  1.00  0.00     0.217 HD
ENDBRANCH  10  18
BRANCH   7  20
ATOM     20  O2  UNK     1      37.246   0.536   7.414  1.00  0.00    -0.360 OA
ATOM     21  H9  UNK     1      37.614   1.360   7.060  1.00  0.00     0.217 HD
ENDBRANCH   7  20
TORSDOF 3
ENDMDL
MODEL 15
REMARK VINA RESULT:      -5.9     12.999     13.935
REMARK  3 active torsions:
REMARK  status: ('A' for Active; 'I' for Inactive)
REMARK    1  A    between atoms: O2_2  and  C6_10 
REMARK    2  A    between atoms: O4_4  and  C9_13 
REMARK    3  A    between atoms: C3_7  and  C5_9 
ROOT
ATOM      1  O1  UNK     1      42.724  20.847  10.608  1.00  0.00    -0.309 OA
ATOM      2  O3  UNK     1      43.766  17.200  12.095  1.00  0.00    -0.287 OA
ATOM      3  C1  UNK     1      44.471  19.252  11.159  1.00  0.00     0.081 A 
ATOM      4  C2  UNK     1      44.046  20.483  10.664  1.00  0.00     0.095 A 
ATOM      5  C3  UNK     1      41.771  19.946  11.058  1.00  0.00     0.090 A 
ATOM      6  C4  UNK     1      43.465  18.297  11.645  1.00  0.00     0.190 A 
ATOM      7  C6  UNK     1      45.831  18.935  11.192  1.00  0.00     0.085 A 
ATOM      8  C7  UNK     1      42.056  18.734  11.562  1.00  0.00     0.094 A 
ATOM      9  C8  UNK     1      44.981  21.408  10.198  1.00  0.00     0.075 A 
ATOM     10  C9  UNK     1      46.340  21.095  10.229  1.00  0.00     0.071 A 
ATOM     11  C10 UNK     1      46.764  19.862  10.726  1.00  0.00     0.074 A 
ENDROOT
BRANCH   5  12
ATOM     12  C5  UNK     1      40.384  20.439  10.959  1.00  0.00    -0.002 A 
ATOM     13  C12 UNK     1      39.492  20.241  12.016  1.00  0.00     0.014 A 
ATOM     14  C14 UNK     1      38.180  20.707  11.924  1.00  0.00     0.001 A 
ATOM     15  C15 UNK     1      37.756  21.373  10.774  1.00  0.00     0.000 A 
ATOM     16  C13 UNK     1      38.644  21.572   9.716  1.00  0.00     0.001 A 
ATOM     17  C11 UNK     1      39.955  21.107   9.809  1.00  0.00     0.014 A 
ENDBRANCH   5  12
BRANCH  10  18
ATOM     18  O4  UNK     1      47.255  21.997   9.776  1.00  0.00    -0.361 OA
ATOM     19  H10 UNK     1      47.090  22.167   8.834  1.00  0.00     0.217 HD
ENDBRANCH  10  18
BRANCH   7  20
ATOM     20  O2  UNK     1      46.296  17.746  11.667  1.00  0.00    -0.360 OA
ATOM     21  H9  UNK     1      45.950  17.011  11.139  1.00  0.00     0.217 HD
ENDBRANCH   7  20
TORSDOF 3
ENDMDL
MODEL 16
REMARK VINA RESULT:      -5.8     20.778     22.061
REMARK  3 active torsions:
REMARK  status: ('A' for Active; 'I' for Inactive)
REMARK    1  A    between atoms: O2_2  and  C6_10 
REMARK    2  A    between atoms: O4_4  and  C9_13 
REMARK    3  A    between atoms: C3_7  and  C5_9 
ROOT
ATOM      1  O1  UNK     1      56.022  -1.055   2.486  1.00  0.00    -0.309 OA
ATOM      2  O3  UNK     1      52.635  -2.258   0.568  1.00  0.00    -0.287 OA
ATOM      3  C1  UNK     1      54.890  -1.574   0.400  1.00  0.00     0.081 A 
ATOM      4  C2  UNK     1      56.014  -1.169   1.118  1.00  0.00     0.095 A 
ATOM      5  C3  UNK     1      54.859  -1.348   3.180  1.00  0.00     0.090 A 
ATOM      6  C4  UNK     1      53.657  -1.895   1.133  1.00  0.00     0.190 A 
ATOM      7  C6  UNK     1      54.939  -1.673  -0.992  1.00  0.00     0.085 A 
ATOM      8  C7  UNK     1      53.716  -1.753   2.603  1.00  0.00     0.094 A 
ATOM      9  C8  UNK     1      57.197  -0.861   0.447  1.00  0.00     0.075 A 
ATOM     10  C9  UNK     1      57.251  -0.958  -0.944  1.00  0.00     0.071 A 
ATOM     11  C10 UNK     1      56.124  -1.364  -1.662  1.00  0.00     0.074 A 
ENDROOT
BRANCH   5  12
ATOM     12  C5  UNK     1      54.979  -1.199   4.644  1.00  0.00    -0.002 A 
ATOM     13  C12 UNK     1      55.698  -0.129   5.183  1.00  0.00     0.014 A 
ATOM     14  C14 UNK     1      55.813   0.012   6.567  1.00  0.00     0.001 A 
ATOM     15  C15 UNK     1      55.209  -0.916   7.415  1.00  0.00     0.000 A 
ATOM     16  C13 UNK     1      54.490  -1.985   6.879  1.00  0.00     0.001 A 
ATOM     17  C11 UNK     1      54.375  -2.126   5.497  1.00  0.00     0.014 A 
ENDBRANCH   5  12
BRANCH  10  18
ATOM     18  O4  UNK     1      58.405  -0.659  -1.603  1.00  0.00    -0.361 OA
ATOM     19  H10 UNK     1      59.007  -1.419  -1.543  1.00  0.00     0.217 HD
ENDBRANCH  10  18
BRANCH   7  20
ATOM     20  O2  UNK     1      53.869  -2.063  -1.739  1.00  0.00    -0.360 OA
ATOM     21  H9  UNK     1      54.030  -1.892  -2.679  1.00  0.00     0.217 HD
ENDBRANCH   7  20
TORSDOF 3
ENDMDL
MODEL 17
REMARK VINA RESULT:      -5.8     13.552     14.809
REMARK  3 active torsions:
REMARK  status: ('A' for Active; 'I' for Inactive)
REMARK    1  A    between atoms: O2_2  and  C6_10 
REMARK    2  A    between atoms: O4_4  and  C9_13 
REMARK    3  A    between atoms: C3_7  and  C5_9 
ROOT
ATOM      1  O1  UNK     1      41.565  22.100  12.223  1.00  0.00    -0.309 OA
ATOM      2  O3  UNK     1      44.145  19.403  10.588  1.00  0.00    -0.287 OA
ATOM      3  C1  UNK     1      42.183  19.781  11.850  1.00  0.00     0.081 A 
ATOM      4  C2  UNK     1      41.341  20.755  12.382  1.00  0.00     0.095 A 
ATOM      5  C3  UNK     1      42.683  22.503  11.509  1.00  0.00     0.090 A 
ATOM      6  C4  UNK     1      43.364  20.204  11.084  1.00  0.00     0.190 A 
ATOM      7  C6  UNK     1      41.905  18.425  12.044  1.00  0.00     0.085 A 
ATOM      8  C7  UNK     1      43.563  21.661  10.944  1.00  0.00     0.094 A 
ATOM      9  C8  UNK     1      40.212  20.381  13.111  1.00  0.00     0.075 A 
ATOM     10  C9  UNK     1      39.931  19.028  13.307  1.00  0.00     0.071 A 
ATOM     11  C10 UNK     1      40.776  18.053  12.773  1.00  0.00     0.074 A 
ENDROOT
BRANCH   5  12
ATOM     12  C5  UNK     1      42.825  23.968  11.392  1.00  0.00    -0.002 A 
ATOM     13  C12 UNK     1      42.169  24.810  12.294  1.00  0.00     0.014 A 
ATOM     14  C14 UNK     1      42.303  26.195  12.184  1.00  0.00     0.001 A 
ATOM     15  C15 UNK     1      43.093  26.741  11.174  1.00  0.00     0.000 A 
ATOM     16  C13 UNK     1      43.750  25.903  10.272  1.00  0.00     0.001 A 
ATOM     17  C11 UNK     1      43.617  24.520  10.382  1.00  0.00     0.014 A 
ENDBRANCH   5  12
BRANCH  10  18
ATOM     18  O4  UNK     1      38.830  18.659  14.017  1.00  0.00    -0.361 OA
ATOM     19  H10 UNK     1      38.084  19.226  13.760  1.00  0.00     0.217 HD
ENDBRANCH  10  18
BRANCH   7  20
ATOM     20  O2  UNK     1      42.696  17.435  11.545  1.00  0.00    -0.360 OA
ATOM     21  H9  UNK     1      43.606  17.533  11.865  1.00  0.00     0.217 HD
ENDBRANCH   7  20
TORSDOF 3
ENDMDL
MODEL 18
REMARK VINA RESULT:      -5.7     15.365     17.474
REMARK  3 active torsions:
REMARK  status: ('A' for Active; 'I' for Inactive)
REMARK    1  A    between atoms: O2_2  and  C6_10 
REMARK    2  A    between atoms: O4_4  and  C9_13 
REMARK    3  A    between atoms: C3_7  and  C5_9 
ROOT
ATOM      1  O1  UNK     1      41.736   0.444   8.209  1.00  0.00    -0.309 OA
ATOM      2  O3  UNK     1      41.597  -2.640  10.868  1.00  0.00    -0.287 OA
ATOM      3  C1  UNK     1      40.422  -1.233   9.377  1.00  0.00     0.081 A 
ATOM      4  C2  UNK     1      40.540  -0.174   8.479  1.00  0.00     0.095 A 
ATOM      5  C3  UNK     1      42.872  -0.002   8.866  1.00  0.00     0.090 A 
ATOM      6  C4  UNK     1      41.627  -1.714  10.069  1.00  0.00     0.190 A 
ATOM      7  C6  UNK     1      39.179  -1.824   9.613  1.00  0.00     0.085 A 
ATOM      8  C7  UNK     1      42.888  -1.015   9.747  1.00  0.00     0.094 A 
ATOM      9  C8  UNK     1      39.413   0.300   7.807  1.00  0.00     0.075 A 
ATOM     10  C9  UNK     1      38.169  -0.287   8.040  1.00  0.00     0.071 A 
ATOM     11  C10 UNK     1      38.053  -1.348   8.940  1.00  0.00     0.074 A 
ENDROOT
BRANCH   5  12
ATOM     12  C5  UNK     1      44.103   0.726   8.498  1.00  0.00    -0.002 A 
ATOM     13  C12 UNK     1      44.146   1.483   7.324  1.00  0.00     0.014 A 
ATOM     14  C14 UNK     1      45.309   2.171   6.976  1.00  0.00     0.001 A 
ATOM     15  C15 UNK     1      46.432   2.105   7.800  1.00  0.00     0.000 A 
ATOM     16  C13 UNK     1      46.392   1.350   8.973  1.00  0.00     0.001 A 
ATOM     17  C11 UNK     1      45.230   0.663   9.322  1.00  0.00     0.014 A 
ENDBRANCH   5  12
BRANCH  10  18
ATOM     18  O4  UNK     1      37.067   0.173   7.385  1.00  0.00    -0.361 OA
ATOM     19  H10 UNK     1      36.310  -0.395   7.606  1.00  0.00     0.217 HD
ENDBRANCH  10  18
BRANCH   7  20
ATOM     20  O2  UNK     1      39.011  -2.861  10.480  1.00  0.00    -0.360 OA
ATOM     21  H9  UNK     1      38.176  -3.320  10.304  1.00  0.00     0.217 HD
ENDBRANCH   7  20
TORSDOF 3
ENDMDL
MODEL 19
REMARK VINA RESULT:      -5.7     14.233     16.173
REMARK  3 active torsions:
REMARK  status: ('A' for Active; 'I' for Inactive)
REMARK    1  A    between atoms: O2_2  and  C6_10 
REMARK    2  A    between atoms: O4_4  and  C9_13 
REMARK    3  A    between atoms: C3_7  and  C5_9 
ROOT
ATOM      1  O1  UNK     1      42.171   1.116   9.479  1.00  0.00    -0.309 OA
ATOM      2  O3  UNK     1      39.036   1.032   6.878  1.00  0.00    -0.287 OA
ATOM      3  C1  UNK     1      40.447  -0.166   8.347  1.00  0.00     0.081 A 
ATOM      4  C2  UNK     1      41.524  -0.067   9.225  1.00  0.00     0.095 A 
ATOM      5  C3  UNK     1      41.737   2.260   8.826  1.00  0.00     0.090 A 
ATOM      6  C4  UNK     1      39.977   1.045   7.660  1.00  0.00     0.190 A 
ATOM      7  C6  UNK     1      39.825  -1.398   8.128  1.00  0.00     0.085 A 
ATOM      8  C7  UNK     1      40.708   2.293   7.964  1.00  0.00     0.094 A 
ATOM      9  C8  UNK     1      41.988  -1.201   9.892  1.00  0.00     0.075 A 
ATOM     10  C9  UNK     1      41.370  -2.434   9.676  1.00  0.00     0.071 A 
ATOM     11  C10 UNK     1      40.291  -2.531   8.796  1.00  0.00     0.074 A 
ENDROOT
BRANCH   5  12
ATOM     12  C5  UNK     1      42.498   3.476   9.175  1.00  0.00    -0.002 A 
ATOM     13  C12 UNK     1      43.827   3.613   8.768  1.00  0.00     0.014 A 
ATOM     14  C14 UNK     1      44.547   4.762   9.098  1.00  0.00     0.001 A 
ATOM     15  C15 UNK     1      43.938   5.778   9.835  1.00  0.00     0.000 A 
ATOM     16  C13 UNK     1      42.611   5.644  10.243  1.00  0.00     0.001 A 
ATOM     17  C11 UNK     1      41.892   4.496   9.913  1.00  0.00     0.014 A 
ENDBRANCH   5  12
BRANCH  10  18
ATOM     18  O4  UNK     1      41.820  -3.543  10.326  1.00  0.00    -0.361 OA
ATOM     19  H10 UNK     1      42.792  -3.546  10.307  1.00  0.00     0.217 HD
ENDBRANCH  10  18
BRANCH   7  20
ATOM     20  O2  UNK     1      38.770  -1.547   7.280  1.00  0.00    -0.360 OA
ATOM     21  H9  UNK     1      39.015  -2.104   6.526  1.00  0.00     0.217 HD
ENDBRANCH   7  20
TORSDOF 3
ENDMDL
