MODEL 1
REMARK VINA RESULT:      -6.0      0.000      0.000
REMARK  3 active torsions:
REMARK  status: ('A' for Active; 'I' for Inactive)
REMARK    1  A    between atoms: O2_2  and  C6_10 
REMARK    2  A    between atoms: O4_4  and  C9_13 
REMARK    3  A    between atoms: C3_7  and  C5_9 
ROOT
ATOM      1  O1  UNK     1      38.799  22.243  11.000  1.00  0.00    -0.309 OA
ATOM      2  O3  UNK     1      37.504  19.826  14.014  1.00  0.00    -0.287 OA
ATOM      3  C1  UNK     1      39.140  20.263  12.365  1.00  0.00     0.081 A 
ATOM      4  C2  UNK     1      39.526  21.132  11.346  1.00  0.00     0.095 A 
ATOM      5  C3  UNK     1      37.626  22.506  11.691  1.00  0.00     0.090 A 
ATOM      6  C4  UNK     1      37.902  20.544  13.106  1.00  0.00     0.190 A 
ATOM      7  C6  UNK     1      39.920  19.147  12.675  1.00  0.00     0.085 A 
ATOM      8  C7  UNK     1      37.153  21.749  12.694  1.00  0.00     0.094 A 
ATOM      9  C8  UNK     1      40.698  20.890  10.630  1.00  0.00     0.075 A 
ATOM     10  C9  UNK     1      41.480  19.775  10.935  1.00  0.00     0.071 A 
ATOM     11  C10 UNK     1      41.092  18.906  11.956  1.00  0.00     0.074 A 
ENDROOT
BRANCH   5  12
ATOM     12  C5  UNK     1      36.926  23.727  11.243  1.00  0.00    -0.002 A 
ATOM     13  C12 UNK     1      37.328  24.979  11.716  1.00  0.00     0.014 A 
ATOM     14  C14 UNK     1      36.667  26.133  11.294  1.00  0.00     0.001 A 
ATOM     15  C15 UNK     1      35.603  26.039  10.398  1.00  0.00     0.000 A 
ATOM     16  C13 UNK     1      35.199  24.791   9.924  1.00  0.00     0.001 A 
ATOM     17  C11 UNK     1      35.860  23.637  10.345  1.00  0.00     0.014 A 
ENDBRANCH   5  12
BRANCH  10  18
ATOM     18  O4  UNK     1      42.625  19.537  10.238  1.00  0.00    -0.361 OA
ATOM     19  H10 UNK     1      42.832  18.588  10.287  1.00  0.00     0.217 HD
ENDBRANCH  10  18
BRANCH   7  20
ATOM     20  O2  UNK     1      39.586  18.269  13.661  1.00  0.00    -0.360 OA
ATOM     21  H9  UNK     1      40.321  17.662  13.839  1.00  0.00     0.217 HD
ENDBRANCH   7  20
TORSDOF 3
ENDMDL
MODEL 2
REMARK VINA RESULT:      -5.9      3.136      5.399
REMARK  3 active torsions:
REMARK  status: ('A' for Active; 'I' for Inactive)
REMARK    1  A    between atoms: O2_2  and  C6_10 
REMARK    2  A    between atoms: O4_4  and  C9_13 
REMARK    3  A    between atoms: C3_7  and  C5_9 
ROOT
ATOM      1  O1  UNK     1      42.678  20.867  10.636  1.00  0.00    -0.309 OA
ATOM      2  O3  UNK     1      43.697  17.187  12.058  1.00  0.00    -0.287 OA
ATOM      3  C1  UNK     1      44.416  19.256  11.169  1.00  0.00     0.081 A 
ATOM      4  C2  UNK     1      43.998  20.498  10.695  1.00  0.00     0.095 A 
ATOM      5  C3  UNK     1      41.719  19.959  11.058  1.00  0.00     0.090 A 
ATOM      6  C4  UNK     1      43.402  18.294  11.627  1.00  0.00     0.190 A 
ATOM      7  C6  UNK     1      45.774  18.934  11.208  1.00  0.00     0.085 A 
ATOM      8  C7  UNK     1      41.995  18.737  11.540  1.00  0.00     0.094 A 
ATOM      9  C8  UNK     1      44.939  21.429  10.257  1.00  0.00     0.075 A 
ATOM     10  C9  UNK     1      46.298  21.112  10.293  1.00  0.00     0.071 A 
ATOM     11  C10 UNK     1      46.714  19.868  10.769  1.00  0.00     0.074 A 
ENDROOT
BRANCH   5  12
ATOM     12  C5  UNK     1      40.333  20.459  10.958  1.00  0.00    -0.002 A 
ATOM     13  C12 UNK     1      39.444  20.280  12.021  1.00  0.00     0.014 A 
ATOM     14  C14 UNK     1      38.134  20.751  11.926  1.00  0.00     0.001 A 
ATOM     15  C15 UNK     1      37.710  21.404  10.769  1.00  0.00     0.000 A 
ATOM     16  C13 UNK     1      38.595  21.584   9.705  1.00  0.00     0.001 A 
ATOM     17  C11 UNK     1      39.904  21.113   9.800  1.00  0.00     0.014 A 
ENDBRANCH   5  12
BRANCH  10  18
ATOM     18  O4  UNK     1      47.219  22.020   9.867  1.00  0.00    -0.361 OA
ATOM     19  H10 UNK     1      47.900  22.125  10.553  1.00  0.00     0.217 HD
ENDBRANCH  10  18
BRANCH   7  20
ATOM     20  O2  UNK     1      46.232  17.735  11.662  1.00  0.00    -0.360 OA
ATOM     21  H9  UNK     1      47.000  17.447  11.146  1.00  0.00     0.217 HD
ENDBRANCH   7  20
TORSDOF 3
ENDMDL
MODEL 3
REMARK VINA RESULT:      -5.9      3.131      5.417
REMARK  3 active torsions:
REMARK  status: ('A' for Active; 'I' for Inactive)
REMARK    1  A    between atoms: O2_2  and  C6_10 
REMARK    2  A    between atoms: O4_4  and  C9_13 
REMARK    3  A    between atoms: C3_7  and  C5_9 
ROOT
ATOM      1  O1  UNK     1      42.669  20.868  10.629  1.00  0.00    -0.309 OA
ATOM      2  O3  UNK     1      43.689  17.193  12.060  1.00  0.00    -0.287 OA
ATOM      3  C1  UNK     1      44.408  19.259  11.166  1.00  0.00     0.081 A 
ATOM      4  C2  UNK     1      43.990  20.500  10.689  1.00  0.00     0.095 A 
ATOM      5  C3  UNK     1      41.711  19.962  11.055  1.00  0.00     0.090 A 
ATOM      6  C4  UNK     1      43.395  18.298  11.627  1.00  0.00     0.190 A 
ATOM      7  C6  UNK     1      45.766  18.937  11.204  1.00  0.00     0.085 A 
ATOM      8  C7  UNK     1      41.988  18.741  11.540  1.00  0.00     0.094 A 
ATOM      9  C8  UNK     1      44.931  21.430  10.247  1.00  0.00     0.075 A 
ATOM     10  C9  UNK     1      46.289  21.113  10.283  1.00  0.00     0.071 A 
ATOM     11  C10 UNK     1      46.705  19.869  10.761  1.00  0.00     0.074 A 
ENDROOT
BRANCH   5  12
ATOM     12  C5  UNK     1      40.325  20.462  10.954  1.00  0.00    -0.002 A 
ATOM     13  C12 UNK     1      39.896  21.109   9.793  1.00  0.00     0.014 A 
ATOM     14  C14 UNK     1      38.586  21.582   9.697  1.00  0.00     0.001 A 
ATOM     15  C15 UNK     1      37.703  21.408  10.762  1.00  0.00     0.000 A 
ATOM     16  C13 UNK     1      38.128  20.762  11.923  1.00  0.00     0.001 A 
ATOM     17  C11 UNK     1      39.437  20.290  12.019  1.00  0.00     0.014 A 
ENDBRANCH   5  12
BRANCH  10  18
ATOM     18  O4  UNK     1      47.210  22.019   9.853  1.00  0.00    -0.361 OA
ATOM     19  H10 UNK     1      47.005  22.266   8.935  1.00  0.00     0.217 HD
ENDBRANCH  10  18
BRANCH   7  20
ATOM     20  O2  UNK     1      46.224  17.739  11.661  1.00  0.00    -0.360 OA
ATOM     21  H9  UNK     1      45.494  17.109  11.755  1.00  0.00     0.217 HD
ENDBRANCH   7  20
TORSDOF 3
ENDMDL
MODEL 4
REMARK VINA RESULT:      -5.8      3.828      5.298
REMARK  3 active torsions:
REMARK  status: ('A' for Active; 'I' for Inactive)
REMARK    1  A    between atoms: O2_2  and  C6_10 
REMARK    2  A    between atoms: O4_4  and  C9_13 
REMARK    3  A    between atoms: C3_7  and  C5_9 
ROOT
ATOM      1  O1  UNK     1      41.556  22.069  12.254  1.00  0.00    -0.309 OA
ATOM      2  O3  UNK     1      44.102  19.381  10.552  1.00  0.00    -0.287 OA
ATOM      3  C1  UNK     1      42.168  19.752  11.860  1.00  0.00     0.081 A 
ATOM      4  C2  UNK     1      41.337  20.723  12.414  1.00  0.00     0.095 A 
ATOM      5  C3  UNK     1      42.656  22.476  11.516  1.00  0.00     0.090 A 
ATOM      6  C4  UNK     1      43.332  20.179  11.069  1.00  0.00     0.190 A 
ATOM      7  C6  UNK     1      41.897  18.395  12.055  1.00  0.00     0.085 A 
ATOM      8  C7  UNK     1      43.525  21.637  10.929  1.00  0.00     0.094 A 
ATOM      9  C8  UNK     1      40.226  20.344  13.167  1.00  0.00     0.075 A 
ATOM     10  C9  UNK     1      39.951  18.991  13.364  1.00  0.00     0.071 A 
ATOM     11  C10 UNK     1      40.785  18.019  12.809  1.00  0.00     0.074 A 
ENDROOT
BRANCH   5  12
ATOM     12  C5  UNK     1      42.794  23.941  11.402  1.00  0.00    -0.002 A 
ATOM     13  C12 UNK     1      43.610  24.494  10.411  1.00  0.00     0.014 A 
ATOM     14  C14 UNK     1      43.741  25.879  10.303  1.00  0.00     0.001 A 
ATOM     15  C15 UNK     1      43.056  26.716  11.184  1.00  0.00     0.000 A 
ATOM     16  C13 UNK     1      42.240  26.167  12.174  1.00  0.00     0.001 A 
ATOM     17  C11 UNK     1      42.109  24.783  12.282  1.00  0.00     0.014 A 
ENDBRANCH   5  12
BRANCH  10  18
ATOM     18  O4  UNK     1      38.867  18.617  14.098  1.00  0.00    -0.361 OA
ATOM     19  H10 UNK     1      38.234  18.163  13.517  1.00  0.00     0.217 HD
ENDBRANCH  10  18
BRANCH   7  20
ATOM     20  O2  UNK     1      42.678  17.408  11.535  1.00  0.00    -0.360 OA
ATOM     21  H9  UNK     1      42.516  16.570  11.993  1.00  0.00     0.217 HD
ENDBRANCH   7  20
TORSDOF 3
ENDMDL
MODEL 5
REMARK VINA RESULT:      -5.8      3.108      6.733
REMARK  3 active torsions:
REMARK  status: ('A' for Active; 'I' for Inactive)
REMARK    1  A    between atoms: O2_2  and  C6_10 
REMARK    2  A    between atoms: O4_4  and  C9_13 
REMARK    3  A    between atoms: C3_7  and  C5_9 
ROOT
ATOM      1  O1  UNK     1      36.455  23.831  10.514  1.00  0.00    -0.309 OA
ATOM      2  O3  UNK     1      34.297  22.816  13.817  1.00  0.00    -0.287 OA
ATOM      3  C1  UNK     1      34.456  24.131  11.860  1.00  0.00     0.081 A 
ATOM      4  C2  UNK     1      35.243  24.430  10.750  1.00  0.00     0.095 A 
ATOM      5  C3  UNK     1      36.917  22.893  11.424  1.00  0.00     0.090 A 
ATOM      6  C4  UNK     1      34.937  23.130  12.823  1.00  0.00     0.190 A 
ATOM      7  C6  UNK     1      33.230  24.772  12.050  1.00  0.00     0.085 A 
ATOM      8  C7  UNK     1      36.248  22.516  12.525  1.00  0.00     0.094 A 
ATOM      9  C8  UNK     1      34.809  25.375   9.820  1.00  0.00     0.075 A 
ATOM     10  C9  UNK     1      33.585  26.019  10.006  1.00  0.00     0.071 A 
ATOM     11  C10 UNK     1      32.797  25.717  11.118  1.00  0.00     0.074 A 
ENDROOT
BRANCH   5  12
ATOM     12  C5  UNK     1      38.225  22.306  11.071  1.00  0.00    -0.002 A 
ATOM     13  C12 UNK     1      38.352  21.511   9.929  1.00  0.00     0.014 A 
ATOM     14  C14 UNK     1      39.588  20.956   9.595  1.00  0.00     0.001 A 
ATOM     15  C15 UNK     1      40.700  21.195  10.401  1.00  0.00     0.000 A 
ATOM     16  C13 UNK     1      40.577  21.989  11.542  1.00  0.00     0.001 A 
ATOM     17  C11 UNK     1      39.342  22.544  11.876  1.00  0.00     0.014 A 
ENDBRANCH   5  12
BRANCH  10  18
ATOM     18  O4  UNK     1      33.157  26.941   9.100  1.00  0.00    -0.361 OA
ATOM     19  H10 UNK     1      33.003  27.784   9.557  1.00  0.00     0.217 HD
ENDBRANCH  10  18
BRANCH   7  20
ATOM     20  O2  UNK     1      32.424  24.514  13.117  1.00  0.00    -0.360 OA
ATOM     21  H9  UNK     1      32.909  24.639  13.947  1.00  0.00     0.217 HD
ENDBRANCH   7  20
TORSDOF 3
ENDMDL
MODEL 6
REMARK VINA RESULT:      -5.7      3.688      4.735
REMARK  3 active torsions:
REMARK  status: ('A' for Active; 'I' for Inactive)
REMARK    1  A    between atoms: O2_2  and  C6_10 
REMARK    2  A    between atoms: O4_4  and  C9_13 
REMARK    3  A    between atoms: C3_7  and  C5_9 
ROOT
ATOM      1  O1  UNK     1      43.313  21.710  11.550  1.00  0.00    -0.309 OA
ATOM      2  O3  UNK     1      39.513  20.439  12.291  1.00  0.00    -0.287 OA
ATOM      3  C1  UNK     1      41.795  19.877  12.037  1.00  0.00     0.081 A 
ATOM      4  C2  UNK     1      43.069  20.379  11.779  1.00  0.00     0.095 A 
ATOM      5  C3  UNK     1      42.243  22.591  11.570  1.00  0.00     0.090 A 
ATOM      6  C4  UNK     1      40.658  20.809  12.068  1.00  0.00     0.190 A 
ATOM      7  C6  UNK     1      41.605  18.512  12.263  1.00  0.00     0.085 A 
ATOM      8  C7  UNK     1      40.972  22.231  11.813  1.00  0.00     0.094 A 
ATOM      9  C8  UNK     1      44.165  19.516  11.745  1.00  0.00     0.075 A 
ATOM     10  C9  UNK     1      43.980  18.152  11.970  1.00  0.00     0.071 A 
ATOM     11  C10 UNK     1      42.703  17.651  12.229  1.00  0.00     0.074 A 
ENDROOT
BRANCH   5  12
ATOM     12  C5  UNK     1      42.617  23.996  11.319  1.00  0.00    -0.002 A 
ATOM     13  C12 UNK     1      42.168  25.005  12.176  1.00  0.00     0.014 A 
ATOM     14  C14 UNK     1      42.521  26.334  11.939  1.00  0.00     0.001 A 
ATOM     15  C15 UNK     1      43.323  26.659  10.845  1.00  0.00     0.000 A 
ATOM     16  C13 UNK     1      43.773  25.654   9.988  1.00  0.00     0.001 A 
ATOM     17  C11 UNK     1      43.421  24.326  10.225  1.00  0.00     0.014 A 
ENDBRANCH   5  12
BRANCH  10  18
ATOM     18  O4  UNK     1      45.048  17.307  11.939  1.00  0.00    -0.361 OA
ATOM     19  H10 UNK     1      44.825  16.537  11.389  1.00  0.00     0.217 HD
ENDBRANCH  10  18
BRANCH   7  20
ATOM     20  O2  UNK     1      40.381  17.974  12.519  1.00  0.00    -0.360 OA
ATOM     21  H9  UNK     1      39.818  18.614  12.980  1.00  0.00     0.217 HD
ENDBRANCH   7  20
TORSDOF 3
ENDMDL
MODEL 7
REMARK VINA RESULT:      -5.7      3.583      5.759
REMARK  3 active torsions:
REMARK  status: ('A' for Active; 'I' for Inactive)
REMARK    1  A    between atoms: O2_2  and  C6_10 
REMARK    2  A    between atoms: O4_4  and  C9_13 
REMARK    3  A    between atoms: C3_7  and  C5_9 
ROOT
ATOM      1  O1  UNK     1      42.710  20.999  10.787  1.00  0.00    -0.309 OA
ATOM      2  O3  UNK     1      44.681  24.552  11.085  1.00  0.00    -0.287 OA
ATOM      3  C1  UNK     1      44.818  22.199  10.918  1.00  0.00     0.081 A 
ATOM      4  C2  UNK     1      44.082  21.020  10.817  1.00  0.00     0.095 A 
ATOM      5  C3  UNK     1      42.029  22.203  10.869  1.00  0.00     0.090 A 
ATOM      6  C4  UNK     1      44.100  23.479  10.997  1.00  0.00     0.190 A 
ATOM      7  C6  UNK     1      46.214  22.160  10.944  1.00  0.00     0.085 A 
ATOM      8  C7  UNK     1      42.624  23.403  10.964  1.00  0.00     0.094 A 
ATOM      9  C8  UNK     1      44.739  19.792  10.738  1.00  0.00     0.075 A 
ATOM     10  C9  UNK     1      46.133  19.748  10.764  1.00  0.00     0.071 A 
ATOM     11  C10 UNK     1      46.868  20.930  10.866  1.00  0.00     0.074 A 
ENDROOT
BRANCH   5  12
ATOM     12  C5  UNK     1      40.560  22.067  10.822  1.00  0.00    -0.002 A 
ATOM     13  C12 UNK     1      39.955  21.343   9.791  1.00  0.00     0.014 A 
ATOM     14  C14 UNK     1      38.566  21.215   9.745  1.00  0.00     0.001 A 
ATOM     15  C15 UNK     1      37.778  21.809  10.730  1.00  0.00     0.000 A 
ATOM     16  C13 UNK     1      38.379  22.533  11.761  1.00  0.00     0.001 A 
ATOM     17  C11 UNK     1      39.766  22.661  11.807  1.00  0.00     0.014 A 
ENDBRANCH   5  12
BRANCH  10  18
ATOM     18  O4  UNK     1      46.778  18.551  10.687  1.00  0.00    -0.361 OA
ATOM     19  H10 UNK     1      46.833  18.165  11.577  1.00  0.00     0.217 HD
ENDBRANCH  10  18
BRANCH   7  20
ATOM     20  O2  UNK     1      46.977  23.283  11.042  1.00  0.00    -0.360 OA
ATOM     21  H9  UNK     1      47.686  23.271  10.381  1.00  0.00     0.217 HD
ENDBRANCH   7  20
TORSDOF 3
ENDMDL
MODEL 8
REMARK VINA RESULT:      -5.6      2.720      4.412
REMARK  3 active torsions:
REMARK  status: ('A' for Active; 'I' for Inactive)
REMARK    1  A    between atoms: O2_2  and  C6_10 
REMARK    2  A    between atoms: O4_4  and  C9_13 
REMARK    3  A    between atoms: C3_7  and  C5_9 
ROOT
ATOM      1  O1  UNK     1      41.952  22.082  10.913  1.00  0.00    -0.309 OA
ATOM      2  O3  UNK     1      42.637  18.077  11.213  1.00  0.00    -0.287 OA
ATOM      3  C1  UNK     1      43.544  20.251  11.023  1.00  0.00     0.081 A 
ATOM      4  C2  UNK     1      43.239  21.607  10.924  1.00  0.00     0.095 A 
ATOM      5  C3  UNK     1      40.911  21.170  10.996  1.00  0.00     0.090 A 
ATOM      6  C4  UNK     1      42.443  19.281  11.121  1.00  0.00     0.190 A 
ATOM      7  C6  UNK     1      44.874  19.824  11.030  1.00  0.00     0.085 A 
ATOM      8  C7  UNK     1      41.076  19.842  11.102  1.00  0.00     0.094 A 
ATOM      9  C8  UNK     1      44.265  22.548  10.832  1.00  0.00     0.075 A 
ATOM     10  C9  UNK     1      45.595  22.126  10.838  1.00  0.00     0.071 A 
ATOM     11  C10 UNK     1      45.898  20.767  10.938  1.00  0.00     0.074 A 
ENDROOT
BRANCH   5  12
ATOM     12  C5  UNK     1      39.570  21.787  10.982  1.00  0.00    -0.002 A 
ATOM     13  C12 UNK     1      39.222  22.731  11.952  1.00  0.00     0.014 A 
ATOM     14  C14 UNK     1      37.954  23.314  11.940  1.00  0.00     0.001 A 
ATOM     15  C15 UNK     1      37.031  22.956  10.958  1.00  0.00     0.000 A 
ATOM     16  C13 UNK     1      37.375  22.014   9.988  1.00  0.00     0.001 A 
ATOM     17  C11 UNK     1      38.642  21.431  10.000  1.00  0.00     0.014 A 
ENDBRANCH   5  12
BRANCH  10  18
ATOM     18  O4  UNK     1      46.599  23.042  10.750  1.00  0.00    -0.361 OA
ATOM     19  H10 UNK     1      46.750  23.430  11.628  1.00  0.00     0.217 HD
ENDBRANCH  10  18
BRANCH   7  20
ATOM     20  O2  UNK     1      45.223  18.511  11.125  1.00  0.00    -0.360 OA
ATOM     21  H9  UNK     1      45.034  18.173  12.014  1.00  0.00     0.217 HD
ENDBRANCH   7  20
TORSDOF 3
ENDMDL
MODEL 9
REMARK VINA RESULT:      -5.6      1.855      3.854
REMARK  3 active torsions:
REMARK  status: ('A' for Active; 'I' for Inactive)
REMARK    1  A    between atoms: O2_2  and  C6_10 
REMARK    2  A    between atoms: O4_4  and  C9_13 
REMARK    3  A    between atoms: C3_7  and  C5_9 
ROOT
ATOM      1  O1  UNK     1      39.881  19.857  12.148  1.00  0.00    -0.309 OA
ATOM      2  O3  UNK     1      43.520  20.563  10.457  1.00  0.00    -0.287 OA
ATOM      3  C1  UNK     1      42.158  19.117  11.738  1.00  0.00     0.081 A 
ATOM      4  C2  UNK     1      40.890  18.938  12.289  1.00  0.00     0.095 A 
ATOM      5  C3  UNK     1      40.138  21.017  11.433  1.00  0.00     0.090 A 
ATOM      6  C4  UNK     1      42.432  20.341  10.970  1.00  0.00     0.190 A 
ATOM      7  C6  UNK     1      43.148  18.148  11.913  1.00  0.00     0.085 A 
ATOM      8  C7  UNK     1      41.314  21.300  10.850  1.00  0.00     0.094 A 
ATOM      9  C8  UNK     1      40.604  17.785  13.019  1.00  0.00     0.075 A 
ATOM     10  C9  UNK     1      41.590  16.814  13.197  1.00  0.00     0.071 A 
ATOM     11  C10 UNK     1      42.858  16.995  12.644  1.00  0.00     0.074 A 
ENDROOT
BRANCH   5  12
ATOM     12  C5  UNK     1      38.984  21.932  11.337  1.00  0.00    -0.002 A 
ATOM     13  C12 UNK     1      38.867  23.009  12.220  1.00  0.00     0.014 A 
ATOM     14  C14 UNK     1      37.776  23.874  12.131  1.00  0.00     0.001 A 
ATOM     15  C15 UNK     1      36.799  23.666  11.158  1.00  0.00     0.000 A 
ATOM     16  C13 UNK     1      36.912  22.592  10.275  1.00  0.00     0.001 A 
ATOM     17  C11 UNK     1      38.002  21.727  10.364  1.00  0.00     0.014 A 
ENDBRANCH   5  12
BRANCH  10  18
ATOM     18  O4  UNK     1      41.313  15.687  13.909  1.00  0.00    -0.361 OA
ATOM     19  H10 UNK     1      41.883  14.966  13.593  1.00  0.00     0.217 HD
ENDBRANCH  10  18
BRANCH   7  20
ATOM     20  O2  UNK     1      44.400  18.276  11.394  1.00  0.00    -0.360 OA
ATOM     21  H9  UNK     1      45.057  17.892  11.994  1.00  0.00     0.217 HD
ENDBRANCH   7  20
TORSDOF 3
ENDMDL
MODEL 10
REMARK VINA RESULT:      -5.6      1.863      4.006
REMARK  3 active torsions:
REMARK  status: ('A' for Active; 'I' for Inactive)
REMARK    1  A    between atoms: O2_2  and  C6_10 
REMARK    2  A    between atoms: O4_4  and  C9_13 
REMARK    3  A    between atoms: C3_7  and  C5_9 
ROOT
ATOM      1  O1  UNK     1      39.893  19.858  12.143  1.00  0.00    -0.309 OA
ATOM      2  O3  UNK     1      43.533  20.583  10.461  1.00  0.00    -0.287 OA
ATOM      3  C1  UNK     1      42.172  19.126  11.731  1.00  0.00     0.081 A 
ATOM      4  C2  UNK     1      40.905  18.941  12.279  1.00  0.00     0.095 A 
ATOM      5  C3  UNK     1      40.148  21.023  11.435  1.00  0.00     0.090 A 
ATOM      6  C4  UNK     1      42.444  20.356  10.971  1.00  0.00     0.190 A 
ATOM      7  C6  UNK     1      43.165  18.158  11.901  1.00  0.00     0.085 A 
ATOM      8  C7  UNK     1      41.325  21.313  10.856  1.00  0.00     0.094 A 
ATOM      9  C8  UNK     1      40.620  17.782  13.002  1.00  0.00     0.075 A 
ATOM     10  C9  UNK     1      41.608  16.812  13.175  1.00  0.00     0.071 A 
ATOM     11  C10 UNK     1      42.877  17.000  12.624  1.00  0.00     0.074 A 
ENDROOT
BRANCH   5  12
ATOM     12  C5  UNK     1      38.992  21.936  11.344  1.00  0.00    -0.002 A 
ATOM     13  C12 UNK     1      38.002  21.720  10.382  1.00  0.00     0.014 A 
ATOM     14  C14 UNK     1      36.909  22.583  10.295  1.00  0.00     0.001 A 
ATOM     15  C15 UNK     1      36.802  23.664  11.170  1.00  0.00     0.000 A 
ATOM     16  C13 UNK     1      37.789  23.882  12.132  1.00  0.00     0.001 A 
ATOM     17  C11 UNK     1      38.881  23.020  12.219  1.00  0.00     0.014 A 
ENDBRANCH   5  12
BRANCH  10  18
ATOM     18  O4  UNK     1      41.333  15.680  13.879  1.00  0.00    -0.361 OA
ATOM     19  H10 UNK     1      41.662  15.786  14.788  1.00  0.00     0.217 HD
ENDBRANCH  10  18
BRANCH   7  20
ATOM     20  O2  UNK     1      44.418  18.292  11.385  1.00  0.00    -0.360 OA
ATOM     21  H9  UNK     1      44.727  17.450  11.020  1.00  0.00     0.217 HD
ENDBRANCH   7  20
TORSDOF 3
ENDMDL
MODEL 11
REMARK VINA RESULT:      -5.5      3.287      4.429
REMARK  3 active torsions:
REMARK  status: ('A' for Active; 'I' for Inactive)
REMARK    1  A    between atoms: O2_2  and  C6_10 
REMARK    2  A    between atoms: O4_4  and  C9_13 
REMARK    3  A    between atoms: C3_7  and  C5_9 
ROOT
ATOM      1  O1  UNK     1      42.831  23.480  11.473  1.00  0.00    -0.309 OA
ATOM      2  O3  UNK     1      40.189  20.381  11.349  1.00  0.00    -0.287 OA
ATOM      3  C1  UNK     1      42.404  21.134  11.012  1.00  0.00     0.081 A 
ATOM      4  C2  UNK     1      43.254  22.236  11.078  1.00  0.00     0.095 A 
ATOM      5  C3  UNK     1      41.498  23.647  11.814  1.00  0.00     0.090 A 
ATOM      6  C4  UNK     1      40.991  21.305  11.381  1.00  0.00     0.190 A 
ATOM      7  C6  UNK     1      42.889  19.890  10.603  1.00  0.00     0.085 A 
ATOM      8  C7  UNK     1      40.584  22.663  11.797  1.00  0.00     0.094 A 
ATOM      9  C8  UNK     1      44.599  22.101  10.735  1.00  0.00     0.075 A 
ATOM     10  C9  UNK     1      45.089  20.860  10.325  1.00  0.00     0.071 A 
ATOM     11  C10 UNK     1      44.235  19.757  10.260  1.00  0.00     0.074 A 
ENDROOT
BRANCH   5  12
ATOM     12  C5  UNK     1      41.151  25.021  12.229  1.00  0.00    -0.002 A 
ATOM     13  C12 UNK     1      39.839  25.333  12.594  1.00  0.00     0.014 A 
ATOM     14  C14 UNK     1      39.511  26.632  12.986  1.00  0.00     0.001 A 
ATOM     15  C15 UNK     1      40.493  27.621  13.016  1.00  0.00     0.000 A 
ATOM     16  C13 UNK     1      41.805  27.312  12.653  1.00  0.00     0.001 A 
ATOM     17  C11 UNK     1      42.133  26.015  12.261  1.00  0.00     0.014 A 
ENDBRANCH   5  12
BRANCH  10  18
ATOM     18  O4  UNK     1      46.402  20.724   9.990  1.00  0.00    -0.361 OA
ATOM     19  H10 UNK     1      46.470  20.147   9.211  1.00  0.00     0.217 HD
ENDBRANCH  10  18
BRANCH   7  20
ATOM     20  O2  UNK     1      42.099  18.784  10.522  1.00  0.00    -0.360 OA
ATOM     21  H9  UNK     1      42.510  18.114   9.955  1.00  0.00     0.217 HD
ENDBRANCH   7  20
TORSDOF 3
ENDMDL
MODEL 12
REMARK VINA RESULT:      -5.5      4.860      7.835
REMARK  3 active torsions:
REMARK  status: ('A' for Active; 'I' for Inactive)
REMARK    1  A    between atoms: O2_2  and  C6_10 
REMARK    2  A    between atoms: O4_4  and  C9_13 
REMARK    3  A    between atoms: C3_7  and  C5_9 
ROOT
ATOM      1  O1  UNK     1      44.306  18.505  11.666  1.00  0.00    -0.309 OA
ATOM      2  O3  UNK     1      40.987  20.702  10.798  1.00  0.00    -0.287 OA
ATOM      3  C1  UNK     1      41.930  18.893  11.990  1.00  0.00     0.081 A 
ATOM      4  C2  UNK     1      43.103  18.184  12.244  1.00  0.00     0.095 A 
ATOM      5  C3  UNK     1      44.352  19.575  10.786  1.00  0.00     0.090 A 
ATOM      6  C4  UNK     1      41.976  20.034  11.065  1.00  0.00     0.190 A 
ATOM      7  C6  UNK     1      40.733  18.522  12.607  1.00  0.00     0.085 A 
ATOM      8  C7  UNK     1      43.293  20.337  10.467  1.00  0.00     0.094 A 
ATOM      9  C8  UNK     1      43.087  17.098  13.119  1.00  0.00     0.075 A 
ATOM     10  C9  UNK     1      41.893  16.724  13.737  1.00  0.00     0.071 A 
ATOM     11  C10 UNK     1      40.719  17.435  13.482  1.00  0.00     0.074 A 
ENDROOT
BRANCH   5  12
ATOM     12  C5  UNK     1      45.693  19.837  10.228  1.00  0.00    -0.002 A 
ATOM     13  C12 UNK     1      45.872  20.841   9.273  1.00  0.00     0.014 A 
ATOM     14  C14 UNK     1      47.139  21.088   8.744  1.00  0.00     0.001 A 
ATOM     15  C15 UNK     1      48.232  20.333   9.170  1.00  0.00     0.000 A 
ATOM     16  C13 UNK     1      48.057  19.330  10.124  1.00  0.00     0.001 A 
ATOM     17  C11 UNK     1      46.791  19.083  10.652  1.00  0.00     0.014 A 
ENDBRANCH   5  12
BRANCH  10  18
ATOM     18  O4  UNK     1      41.874  15.665  14.593  1.00  0.00    -0.361 OA
ATOM     19  H10 UNK     1      41.861  14.842  14.076  1.00  0.00     0.217 HD
ENDBRANCH  10  18
BRANCH   7  20
ATOM     20  O2  UNK     1      39.561  19.181  12.392  1.00  0.00    -0.360 OA
ATOM     21  H9  UNK     1      38.910  18.592  11.983  1.00  0.00     0.217 HD
ENDBRANCH   7  20
TORSDOF 3
ENDMDL
MODEL 13
REMARK VINA RESULT:      -5.5      3.576      5.267
REMARK  3 active torsions:
REMARK  status: ('A' for Active; 'I' for Inactive)
REMARK    1  A    between atoms: O2_2  and  C6_10 
REMARK    2  A    between atoms: O4_4  and  C9_13 
REMARK    3  A    between atoms: C3_7  and  C5_9 
ROOT
ATOM      1  O1  UNK     1      41.614  23.299  11.657  1.00  0.00    -0.309 OA
ATOM      2  O3  UNK     1      45.632  23.948  11.477  1.00  0.00    -0.287 OA
ATOM      3  C1  UNK     1      43.839  22.429  11.222  1.00  0.00     0.081 A 
ATOM      4  C2  UNK     1      42.457  22.276  11.302  1.00  0.00     0.095 A 
ATOM      5  C3  UNK     1      42.165  24.535  11.955  1.00  0.00     0.090 A 
ATOM      6  C4  UNK     1      44.427  23.741  11.529  1.00  0.00     0.190 A 
ATOM      7  C6  UNK     1      44.650  21.352  10.855  1.00  0.00     0.085 A 
ATOM      8  C7  UNK     1      43.479  24.808  11.908  1.00  0.00     0.094 A 
ATOM      9  C8  UNK     1      41.874  21.042  11.014  1.00  0.00     0.075 A 
ATOM     10  C9  UNK     1      42.679  19.963  10.647  1.00  0.00     0.071 A 
ATOM     11  C10 UNK     1      44.064  20.118  10.568  1.00  0.00     0.074 A 
ENDROOT
BRANCH   5  12
ATOM     12  C5  UNK     1      41.170  25.564  12.318  1.00  0.00    -0.002 A 
ATOM     13  C12 UNK     1      39.854  25.196  12.609  1.00  0.00     0.014 A 
ATOM     14  C14 UNK     1      38.913  26.168  12.951  1.00  0.00     0.001 A 
ATOM     15  C15 UNK     1      39.286  27.511  13.004  1.00  0.00     0.000 A 
ATOM     16  C13 UNK     1      40.599  27.882  12.713  1.00  0.00     0.001 A 
ATOM     17  C11 UNK     1      41.539  26.911  12.372  1.00  0.00     0.014 A 
ENDBRANCH   5  12
BRANCH  10  18
ATOM     18  O4  UNK     1      42.113  18.757  10.364  1.00  0.00    -0.361 OA
ATOM     19  H10 UNK     1      42.747  18.053  10.581  1.00  0.00     0.217 HD
ENDBRANCH  10  18
BRANCH   7  20
ATOM     20  O2  UNK     1      46.005  21.451  10.763  1.00  0.00    -0.360 OA
ATOM     21  H9  UNK     1      46.408  21.428  11.644  1.00  0.00     0.217 HD
ENDBRANCH   7  20
TORSDOF 3
ENDMDL
MODEL 14
REMARK VINA RESULT:      -5.5      2.998      7.163
REMARK  3 active torsions:
REMARK  status: ('A' for Active; 'I' for Inactive)
REMARK    1  A    between atoms: O2_2  and  C6_10 
REMARK    2  A    between atoms: O4_4  and  C9_13 
REMARK    3  A    between atoms: C3_7  and  C5_9 
ROOT
ATOM      1  O1  UNK     1      42.585  20.322  10.396  1.00  0.00    -0.309 OA
ATOM      2  O3  UNK     1      41.477  18.400  13.813  1.00  0.00    -0.287 OA
ATOM      3  C1  UNK     1      40.829  19.716  11.960  1.00  0.00     0.081 A 
ATOM      4  C2  UNK     1      41.275  20.350  10.802  1.00  0.00     0.095 A 
ATOM      5  C3  UNK     1      43.504  19.638  11.176  1.00  0.00     0.090 A 
ATOM      6  C4  UNK     1      41.798  18.982  12.786  1.00  0.00     0.190 A 
ATOM      7  C6  UNK     1      39.482  19.778  12.326  1.00  0.00     0.085 A 
ATOM      8  C7  UNK     1      43.196  18.983  12.308  1.00  0.00     0.094 A 
ATOM      9  C8  UNK     1      40.375  21.052  10.000  1.00  0.00     0.075 A 
ATOM     10  C9  UNK     1      39.029  21.117  10.362  1.00  0.00     0.071 A 
ATOM     11  C10 UNK     1      38.584  20.480  11.521  1.00  0.00     0.074 A 
ENDROOT
BRANCH   5  12
ATOM     12  C5  UNK     1      44.881  19.665  10.646  1.00  0.00    -0.002 A 
ATOM     13  C12 UNK     1      45.849  18.799  11.161  1.00  0.00     0.014 A 
ATOM     14  C14 UNK     1      47.151  18.824  10.660  1.00  0.00     0.001 A 
ATOM     15  C15 UNK     1      47.490  19.715   9.642  1.00  0.00     0.000 A 
ATOM     16  C13 UNK     1      46.526  20.581   9.125  1.00  0.00     0.001 A 
ATOM     17  C11 UNK     1      45.224  20.555   9.625  1.00  0.00     0.014 A 
ENDBRANCH   5  12
BRANCH  10  18
ATOM     18  O4  UNK     1      38.147  21.800   9.580  1.00  0.00    -0.361 OA
ATOM     19  H10 UNK     1      38.510  21.867   8.680  1.00  0.00     0.217 HD
ENDBRANCH  10  18
BRANCH   7  20
ATOM     20  O2  UNK     1      38.997  19.175  13.446  1.00  0.00    -0.360 OA
ATOM     21  H9  UNK     1      39.589  18.464  13.733  1.00  0.00     0.217 HD
ENDBRANCH   7  20
TORSDOF 3
ENDMDL
MODEL 15
REMARK VINA RESULT:      -5.4      4.669      8.319
REMARK  3 active torsions:
REMARK  status: ('A' for Active; 'I' for Inactive)
REMARK    1  A    between atoms: O2_2  and  C6_10 
REMARK    2  A    between atoms: O4_4  and  C9_13 
REMARK    3  A    between atoms: C3_7  and  C5_9 
ROOT
ATOM      1  O1  UNK     1      44.826  22.886  10.635  1.00  0.00    -0.309 OA
ATOM      2  O3  UNK     1      41.234  21.331  11.766  1.00  0.00    -0.287 OA
ATOM      3  C1  UNK     1      42.570  23.256  11.456  1.00  0.00     0.081 A 
ATOM      4  C2  UNK     1      43.821  23.721  11.055  1.00  0.00     0.095 A 
ATOM      5  C3  UNK     1      44.586  21.521  10.617  1.00  0.00     0.090 A 
ATOM      6  C4  UNK     1      42.308  21.809  11.430  1.00  0.00     0.190 A 
ATOM      7  C6  UNK     1      41.584  24.152  11.875  1.00  0.00     0.085 A 
ATOM      8  C7  UNK     1      43.422  20.953  10.973  1.00  0.00     0.094 A 
ATOM      9  C8  UNK     1      44.094  25.088  11.069  1.00  0.00     0.075 A 
ATOM     10  C9  UNK     1      43.112  25.987  11.486  1.00  0.00     0.071 A 
ATOM     11  C10 UNK     1      41.860  25.520  11.888  1.00  0.00     0.074 A 
ENDROOT
BRANCH   5  12
ATOM     12  C5  UNK     1      45.729  20.716  10.143  1.00  0.00    -0.002 A 
ATOM     13  C12 UNK     1      46.375  21.050   8.949  1.00  0.00     0.014 A 
ATOM     14  C14 UNK     1      47.456  20.290   8.500  1.00  0.00     0.001 A 
ATOM     15  C15 UNK     1      47.894  19.194   9.243  1.00  0.00     0.000 A 
ATOM     16  C13 UNK     1      47.252  18.858  10.435  1.00  0.00     0.001 A 
ATOM     17  C11 UNK     1      46.172  19.618  10.884  1.00  0.00     0.014 A 
ENDBRANCH   5  12
BRANCH  10  18
ATOM     18  O4  UNK     1      43.375  27.324  11.500  1.00  0.00    -0.361 OA
ATOM     19  H10 UNK     1      44.160  27.484  12.050  1.00  0.00     0.217 HD
ENDBRANCH  10  18
BRANCH   7  20
ATOM     20  O2  UNK     1      40.347  23.748  12.276  1.00  0.00    -0.360 OA
ATOM     21  H9  UNK     1      39.960  24.392  12.887  1.00  0.00     0.217 HD
ENDBRANCH   7  20
TORSDOF 3
ENDMDL
MODEL 16
REMARK VINA RESULT:      -5.4      3.870      7.509
REMARK  3 active torsions:
REMARK  status: ('A' for Active; 'I' for Inactive)
REMARK    1  A    between atoms: O2_2  and  C6_10 
REMARK    2  A    between atoms: O4_4  and  C9_13 
REMARK    3  A    between atoms: C3_7  and  C5_9 
ROOT
ATOM      1  O1  UNK     1      41.268  23.135  12.199  1.00  0.00    -0.309 OA
ATOM      2  O3  UNK     1      44.488  25.262  10.893  1.00  0.00    -0.287 OA
ATOM      3  C1  UNK     1      42.326  25.293  11.845  1.00  0.00     0.081 A 
ATOM      4  C2  UNK     1      41.259  24.505  12.274  1.00  0.00     0.095 A 
ATOM      5  C3  UNK     1      42.385  22.510  11.666  1.00  0.00     0.090 A 
ATOM      6  C4  UNK     1      43.516  24.634  11.287  1.00  0.00     0.190 A 
ATOM      7  C6  UNK     1      42.262  26.685  11.945  1.00  0.00     0.085 A 
ATOM      8  C7  UNK     1      43.475  23.158  11.225  1.00  0.00     0.094 A 
ATOM      9  C8  UNK     1      40.120  25.105  12.810  1.00  0.00     0.075 A 
ATOM     10  C9  UNK     1      40.051  26.495  12.912  1.00  0.00     0.071 A 
ATOM     11  C10 UNK     1      41.120  27.283  12.481  1.00  0.00     0.074 A 
ENDROOT
BRANCH   5  12
ATOM     12  C5  UNK     1      42.293  21.037  11.638  1.00  0.00    -0.002 A 
ATOM     13  C12 UNK     1      41.293  20.383  12.362  1.00  0.00     0.014 A 
ATOM     14  C14 UNK     1      41.206  18.990  12.337  1.00  0.00     0.001 A 
ATOM     15  C15 UNK     1      42.117  18.248  11.586  1.00  0.00     0.000 A 
ATOM     16  C13 UNK     1      43.117  18.898  10.862  1.00  0.00     0.001 A 
ATOM     17  C11 UNK     1      43.204  20.290  10.887  1.00  0.00     0.014 A 
ENDBRANCH   5  12
BRANCH  10  18
ATOM     18  O4  UNK     1      38.940  27.085  13.435  1.00  0.00    -0.361 OA
ATOM     19  H10 UNK     1      39.074  27.219  14.388  1.00  0.00     0.217 HD
ENDBRANCH  10  18
BRANCH   7  20
ATOM     20  O2  UNK     1      43.277  27.497  11.540  1.00  0.00    -0.360 OA
ATOM     21  H9  UNK     1      43.309  28.298  12.086  1.00  0.00     0.217 HD
ENDBRANCH   7  20
TORSDOF 3
ENDMDL
MODEL 17
REMARK VINA RESULT:      -5.4      5.024      7.222
REMARK  3 active torsions:
REMARK  status: ('A' for Active; 'I' for Inactive)
REMARK    1  A    between atoms: O2_2  and  C6_10 
REMARK    2  A    between atoms: O4_4  and  C9_13 
REMARK    3  A    between atoms: C3_7  and  C5_9 
ROOT
ATOM      1  O1  UNK     1      42.946  22.026  11.329  1.00  0.00    -0.309 OA
ATOM      2  O3  UNK     1      42.532  24.209  14.744  1.00  0.00    -0.287 OA
ATOM      3  C1  UNK     1      42.975  24.195  12.423  1.00  0.00     0.081 A 
ATOM      4  C2  UNK     1      43.101  23.389  11.293  1.00  0.00     0.095 A 
ATOM      5  C3  UNK     1      42.657  21.426  12.545  1.00  0.00     0.090 A 
ATOM      6  C4  UNK     1      42.660  23.563  13.713  1.00  0.00     0.190 A 
ATOM      7  C6  UNK     1      43.144  25.578  12.327  1.00  0.00     0.085 A 
ATOM      8  C7  UNK     1      42.505  22.094  13.700  1.00  0.00     0.094 A 
ATOM      9  C8  UNK     1      43.397  23.963  10.056  1.00  0.00     0.075 A 
ATOM     10  C9  UNK     1      43.568  25.345   9.956  1.00  0.00     0.071 A 
ATOM     11  C10 UNK     1      43.440  26.150  11.089  1.00  0.00     0.074 A 
ENDROOT
BRANCH   5  12
ATOM     12  C5  UNK     1      42.504  19.960  12.469  1.00  0.00    -0.002 A 
ATOM     13  C12 UNK     1      43.586  19.160  12.091  1.00  0.00     0.014 A 
ATOM     14  C14 UNK     1      43.442  17.774  12.020  1.00  0.00     0.001 A 
ATOM     15  C15 UNK     1      42.216  17.184  12.326  1.00  0.00     0.000 A 
ATOM     16  C13 UNK     1      41.134  17.979  12.704  1.00  0.00     0.001 A 
ATOM     17  C11 UNK     1      41.278  19.364  12.776  1.00  0.00     0.014 A 
ENDBRANCH   5  12
BRANCH  10  18
ATOM     18  O4  UNK     1      43.856  25.909   8.751  1.00  0.00    -0.361 OA
ATOM     19  H10 UNK     1      43.024  26.131   8.300  1.00  0.00     0.217 HD
ENDBRANCH  10  18
BRANCH   7  20
ATOM     20  O2  UNK     1      43.030  26.407  13.401  1.00  0.00    -0.360 OA
ATOM     21  H9  UNK     1      43.889  26.519  13.837  1.00  0.00     0.217 HD
ENDBRANCH   7  20
TORSDOF 3
ENDMDL
MODEL 18
REMARK VINA RESULT:      -5.3      3.398      5.155
REMARK  3 active torsions:
REMARK  status: ('A' for Active; 'I' for Inactive)
REMARK    1  A    between atoms: O2_2  and  C6_10 
REMARK    2  A    between atoms: O4_4  and  C9_13 
REMARK    3  A    between atoms: C3_7  and  C5_9 
ROOT
ATOM      1  O1  UNK     1      41.479  22.834  12.191  1.00  0.00    -0.309 OA
ATOM      2  O3  UNK     1      44.902  22.143  10.092  1.00  0.00    -0.287 OA
ATOM      3  C1  UNK     1      42.989  21.243  11.147  1.00  0.00     0.081 A 
ATOM      4  C2  UNK     1      41.832  21.549  11.862  1.00  0.00     0.095 A 
ATOM      5  C3  UNK     1      42.314  23.869  11.800  1.00  0.00     0.090 A 
ATOM      6  C4  UNK     1      43.873  22.338  10.723  1.00  0.00     0.190 A 
ATOM      7  C6  UNK     1      43.299  19.916  10.840  1.00  0.00     0.085 A 
ATOM      8  C7  UNK     1      43.450  23.702  11.104  1.00  0.00     0.094 A 
ATOM      9  C8  UNK     1      40.976  20.528  12.274  1.00  0.00     0.075 A 
ATOM     10  C9  UNK     1      41.282  19.201  11.970  1.00  0.00     0.071 A 
ATOM     11  C10 UNK     1      42.441  18.896  11.254  1.00  0.00     0.074 A 
ENDROOT
BRANCH   5  12
ATOM     12  C5  UNK     1      41.838  25.208  12.199  1.00  0.00    -0.002 A 
ATOM     13  C12 UNK     1      40.509  25.391  12.592  1.00  0.00     0.014 A 
ATOM     14  C14 UNK     1      40.058  26.657  12.968  1.00  0.00     0.001 A 
ATOM     15  C15 UNK     1      40.933  27.743  12.953  1.00  0.00     0.000 A 
ATOM     16  C13 UNK     1      42.260  27.563  12.561  1.00  0.00     0.001 A 
ATOM     17  C11 UNK     1      42.711  26.298  12.186  1.00  0.00     0.014 A 
ENDBRANCH   5  12
BRANCH  10  18
ATOM     18  O4  UNK     1      40.447  18.202  12.370  1.00  0.00    -0.361 OA
ATOM     19  H10 UNK     1      40.887  17.347  12.226  1.00  0.00     0.217 HD
ENDBRANCH  10  18
BRANCH   7  20
ATOM     20  O2  UNK     1      44.416  19.565  10.144  1.00  0.00    -0.360 OA
ATOM     21  H9  UNK     1      44.832  18.785  10.541  1.00  0.00     0.217 HD
ENDBRANCH   7  20
TORSDOF 3
ENDMDL
