REMARK  8 active torsions:
REMARK  status: ('A' for Active; 'I' for Inactive)
REMARK    1  A    between atoms: O2_2  and  C8_13 
REMARK    2  A    between atoms: O3_3  and  C9_14 
REMARK    3  A    between atoms: O4_4  and  C14_19 
REMARK    4  A    between atoms: O5_5  and  C15_20 
REMARK    5  A    between atoms: C1_6  and  C2_7 
REMARK    6  A    between atoms: C1_6  and  C3_8 
REMARK    7  A    between atoms: C2_7  and  C4_9 
REMARK    8  A    between atoms: C4_9  and  C5_10 
ROOT
ATOM      1  C5  UNK     1      -2.213   0.297   0.310  1.00  0.00     0.076 A 
ATOM      2  C8  UNK     1      -2.711  -0.952   0.681  1.00  0.00     0.085 A 
ATOM      3  C9  UNK     1      -2.897   1.069  -0.629  1.00  0.00     0.085 A 
ATOM      4  C10 UNK     1      -3.892  -1.429   0.113  1.00  0.00     0.074 A 
ATOM      5  C11 UNK     1      -4.078   0.593  -1.197  1.00  0.00     0.074 A 
ATOM      6  C14 UNK     1      -4.576  -0.657  -0.826  1.00  0.00     0.071 A 
ENDROOT
BRANCH   1   7
ATOM      7  C4  UNK     1      -0.978   0.795   0.905  1.00  0.00     0.165 C 
ATOM      8  O1  UNK     1      -1.005   1.472   1.951  1.00  0.00    -0.292 OA
BRANCH   7   9
ATOM      9  C2  UNK     1       0.372   0.486   0.236  1.00  0.00     0.088 C 
BRANCH   9  10
ATOM     10  C1  UNK     1       1.537   0.425   1.226  1.00  0.00     0.046 C 
BRANCH  10  11
ATOM     11  C3  UNK     1       2.842   0.128   0.533  1.00  0.00    -0.058 A 
ATOM     12  C6  UNK     1       3.243  -1.189   0.370  1.00  0.00     0.010 A 
ATOM     13  C12 UNK     1       4.451  -1.464  -0.272  1.00  0.00     0.037 A 
ATOM     14  C15 UNK     1       5.245  -0.417  -0.742  1.00  0.00     0.065 A 
ATOM     15  C13 UNK     1       4.830   0.904  -0.571  1.00  0.00     0.037 A 
ATOM     16  C7  UNK     1       3.622   1.178   0.070  1.00  0.00     0.010 A 
BRANCH  14  17
ATOM     17  O5  UNK     1       6.422  -0.685  -1.369  1.00  0.00    -0.361 OA
ATOM     18  H14 UNK     1       6.551  -1.648  -1.400  1.00  0.00     0.217 HD
ENDBRANCH  14  17
ENDBRANCH  10  11
ENDBRANCH   9  10
ENDBRANCH   7   9
ENDBRANCH   1   7
BRANCH   2  19
ATOM     19  O2  UNK     1      -2.059  -1.723   1.597  1.00  0.00    -0.360 OA
ATOM     20  H11 UNK     1      -1.265  -1.270   1.923  1.00  0.00     0.217 HD
ENDBRANCH   2  19
BRANCH   3  21
ATOM     21  O3  UNK     1      -2.428   2.293  -1.005  1.00  0.00    -0.360 OA
ATOM     22  H12 UNK     1      -3.033   2.677  -1.663  1.00  0.00     0.217 HD
ENDBRANCH   3  21
BRANCH   6  23
ATOM     23  O4  UNK     1      -5.728  -1.122  -1.381  1.00  0.00    -0.361 OA
ATOM     24  H13 UNK     1      -5.924  -2.000  -1.011  1.00  0.00     0.217 HD
ENDBRANCH   6  23
TORSDOF 8
