@<TRIPOS>MOLECULE
phloretin.pdb
34 35 1 0 0
SMALL
NO_CHARGES


@<TRIPOS>ATOM
      1 O1         -1.0050    1.4720    1.9510 O.2       1 UNK    0.0000
      2 O2         -2.0590   -1.7230    1.5970 O.3       1 UNK    0.0000
      3 O3         -2.4280    2.2930   -1.0050 O.3       1 UNK    0.0000
      4 O4         -5.7280   -1.1220   -1.3810 O.3       1 UNK    0.0000
      5 O5          6.4220   -0.6850   -1.3690 O.3       1 UNK    0.0000
      6 C1          1.5370    0.4250    1.2260 C.3       1 UNK    0.0000
      7 C2          0.3720    0.4860    0.2360 C.3       1 UNK    0.0000
      8 C3          2.8420    0.1280    0.5330 C.ar      1 UNK    0.0000
      9 C4         -0.9780    0.7950    0.9050 C.2       1 UNK    0.0000
     10 C5         -2.2130    0.2970    0.3100 C.ar      1 UNK    0.0000
     11 C6          3.2430   -1.1890    0.3700 C.ar      1 UNK    0.0000
     12 C7          3.6220    1.1780    0.0700 C.ar      1 UNK    0.0000
     13 C8         -2.7110   -0.9520    0.6810 C.ar      1 UNK    0.0000
     14 C9         -2.8970    1.0690   -0.6290 C.ar      1 UNK    0.0000
     15 C10        -3.8920   -1.4290    0.1130 C.ar      1 UNK    0.0000
     16 C11        -4.0780    0.5930   -1.1970 C.ar      1 UNK    0.0000
     17 C12         4.4510   -1.4640   -0.2720 C.ar      1 UNK    0.0000
     18 C13         4.8300    0.9040   -0.5710 C.ar      1 UNK    0.0000
     19 C14        -4.5760   -0.6570   -0.8260 C.ar      1 UNK    0.0000
     20 C15         5.2450   -0.4170   -0.7420 C.ar      1 UNK    0.0000
     21 H1          1.3380   -0.3370    1.9920 H         1 UNK    0.0000
     22 H2          1.6210    1.3720    1.7750 H         1 UNK    0.0000
     23 H3          0.5470    1.2650   -0.5150 H         1 UNK    0.0000
     24 H4          0.2840   -0.4710   -0.2940 H         1 UNK    0.0000
     25 H5          2.6320   -2.0110    0.7310 H         1 UNK    0.0000
     26 H6          3.3060    2.2100    0.1960 H         1 UNK    0.0000
     27 H7         -4.2750   -2.4030    0.4060 H         1 UNK    0.0000
     28 H8         -4.6170    1.1880   -1.9300 H         1 UNK    0.0000
     29 H9          4.7630   -2.4970   -0.3990 H         1 UNK    0.0000
     30 H10         5.4430    1.7230   -0.9370 H         1 UNK    0.0000
     31 H11        -1.2650   -1.2700    1.9230 H         1 UNK    0.0000
     32 H12        -3.0330    2.6770   -1.6630 H         1 UNK    0.0000
     33 H13        -5.9240   -2.0000   -1.0110 H         1 UNK    0.0000
     34 H14         6.5510   -1.6480   -1.4000 H         1 UNK    0.0000
@<TRIPOS>BOND
     1    1    9 2
     2    2   13 1
     3    2   31 1
     4    3   14 1
     5    3   32 1
     6    4   19 1
     7    4   33 1
     8    5   20 1
     9    5   34 1
    10    6    7 1
    11    6    8 1
    12    6   21 1
    13    6   22 1
    14    7    9 1
    15    7   23 1
    16    7   24 1
    17    8   11 ar
    18    8   12 ar
    19    9   10 1
    20   10   13 ar
    21   10   14 ar
    22   11   17 ar
    23   11   25 1
    24   12   18 ar
    25   12   26 1
    26   13   15 ar
    27   14   16 ar
    28   15   19 ar
    29   15   27 1
    30   16   19 ar
    31   16   28 1
    32   17   20 ar
    33   17   29 1
    34   18   20 ar
    35   18   30 1
@<TRIPOS>SUBSTRUCTURE
     1 UNK     1 RESIDUE           4 A     UNK     0 ROOT
